*
*
*
*                       LINUX           Thu Nov 23 18:02:06 2023
*
*
*
*  PROGRAM  advgen
*
*  Name           : advgen - Quantus - (64-bit)
*  Version        : 19.1.3-s062
*  Build Date     : Tue Jul 23 02:42:20 PDT 2019
*
*  HSPICE LIBRARY
*
*
*

*
.SUBCKT bit_cell_row_64 VDD VSS WL BL<0> BL<10> BL<11> BL<12> BL<13> BL<14>
+ BL<15> BL<16> BL<17> BL<18> BL<19> BL<1> BL<20> BL<21> BL<22> BL<23> BL<24>
+ BL<25> BL<26> BL<27> BL<28> BL<29> BL<2> BL<30> BL<31> BL<32> BL<33> BL<34>
+ BL<35> BL<36> BL<37> BL<38> BL<39> BL<3> BL<40> BL<41> BL<42> BL<43> BL<44>
+ BL<45> BL<46> BL<47> BL<48> BL<49> BL<4> BL<50> BL<51> BL<52> BL<53> BL<54>
+ BL<55> BL<56> BL<57> BL<58> BL<59> BL<5> BL<60> BL<61> BL<62> BL<63> BL<6>
+ BL<7> BL<8> BL<9> BLB<0> BLB<10> BLB<11> BLB<12> BLB<13> BLB<14> BLB<15>
+ BLB<16> BLB<17> BLB<18> BLB<19> BLB<1> BLB<20> BLB<21> BLB<22> BLB<23> BLB<24>
+ BLB<25> BLB<26> BLB<27> BLB<28> BLB<29> BLB<2> BLB<30> BLB<31> BLB<32> BLB<33>
+ BLB<34> BLB<35> BLB<36> BLB<37> BLB<38> BLB<39> BLB<3> BLB<40> BLB<41> BLB<42>
+ BLB<43> BLB<44> BLB<45> BLB<46> BLB<47> BLB<48> BLB<49> BLB<4> BLB<50> BLB<51>
+ BLB<52> BLB<53> BLB<54> BLB<55> BLB<56> BLB<57> BLB<58> BLB<59> BLB<5> BLB<60>
+ BLB<61> BLB<62> BLB<63> BLB<6> BLB<7> BLB<8> BLB<9>
*
*
*  caps2d version: 10
*
*
*       TRANSISTOR CARDS
*
*
MI0<7>/I1<7>/NM0	I0<7>/I1<7>/Q#4	WL#254	BL<63>#1	VSS#4
+ nmos1v	L=4.5e-08	W=1.2e-07
+ AD=2.75e-14	AS=2.75e-14	PD=6.8e-07	PS=6.8e-07
MI0<7>/I1<7>/NM2	I0<7>/I1<7>/Q#4	I0<7>/I1<7>/QB	VSS#383
+ VSS#4	nmos1v	L=4.5e-08	W=2.3e-07
+ AD=3.52e-14	AS=3.52e-14	PD=7.9e-07	PS=7.9e-07
MI0<7>/I1<7>/NM1	BLB<63>#1	WL#250	I0<7>/I1<7>/QB#6	VSS#4
+ nmos1v	L=4.5e-08	W=1.2e-07
+ AD=2.75e-14	AS=2.75e-14	PD=6.8e-07	PS=6.8e-07
MI0<7>/I1<7>/NM3	I0<7>/I1<7>/QB#6	I0<7>/I1<7>/Q#3	VSS#378
+ VSS#4	nmos1v	L=4.5e-08	W=2.3e-07
+ AD=3.52e-14	AS=3.52e-14	PD=7.9e-07	PS=7.9e-07
MI0<7>/I1<6>/NM0	I0<7>/I1<6>/Q#4	WL#248	BL<61>#1	VSS#4
+ nmos1v	L=4.5e-08	W=1.2e-07
+ AD=2.75e-14	AS=2.75e-14	PD=6.8e-07	PS=6.8e-07
MI0<7>/I1<6>/NM2	I0<7>/I1<6>/Q#4	I0<7>/I1<6>/QB	VSS#376
+ VSS#4	nmos1v	L=4.5e-08	W=2.3e-07
+ AD=3.52e-14	AS=3.52e-14	PD=7.9e-07	PS=7.9e-07
MI0<7>/I1<6>/NM1	BLB<61>#1	WL#242	I0<7>/I1<6>/QB#6	VSS#4
+ nmos1v	L=4.5e-08	W=1.2e-07
+ AD=2.75e-14	AS=2.75e-14	PD=6.8e-07	PS=6.8e-07
MI0<7>/I1<6>/NM3	I0<7>/I1<6>/QB#6	I0<7>/I1<6>/Q#3	VSS#371
+ VSS#4	nmos1v	L=4.5e-08	W=2.3e-07
+ AD=3.52e-14	AS=3.52e-14	PD=7.9e-07	PS=7.9e-07
MI0<7>/I1<5>/NM0	I0<7>/I1<5>/Q#6	WL#246	BL<62>#1	VSS#4
+ nmos1v	L=4.5e-08	W=1.2e-07
+ AD=2.75e-14	AS=2.75e-14	PD=6.8e-07	PS=6.8e-07
MI0<7>/I1<5>/NM2	I0<7>/I1<5>/Q#6	I0<7>/I1<5>/QB#2	VSS#374
+ VSS#4	nmos1v	L=4.5e-08	W=2.3e-07
+ AD=3.52e-14	AS=3.52e-14	PD=7.9e-07	PS=7.9e-07
MI0<7>/I1<5>/NM1	BLB<62>#1	WL#252	I0<7>/I1<5>/QB#4	VSS#4
+ nmos1v	L=4.5e-08	W=1.2e-07
+ AD=2.75e-14	AS=2.75e-14	PD=6.8e-07	PS=6.8e-07
MI0<7>/I1<5>/NM3	I0<7>/I1<5>/QB#4	I0<7>/I1<5>/Q	VSS#380
+ VSS#4	nmos1v	L=4.5e-08	W=2.3e-07
+ AD=3.52e-14	AS=3.52e-14	PD=7.9e-07	PS=7.9e-07
MI0<7>/I1<4>/NM0	I0<7>/I1<4>/Q#4	WL#240	BL<59>#1	VSS#4
+ nmos1v	L=4.5e-08	W=1.2e-07
+ AD=2.75e-14	AS=2.75e-14	PD=6.8e-07	PS=6.8e-07
MI0<7>/I1<4>/NM2	I0<7>/I1<4>/Q#4	I0<7>/I1<4>/QB	VSS#366
+ VSS#4	nmos1v	L=4.5e-08	W=2.3e-07
+ AD=3.52e-14	AS=3.52e-14	PD=7.9e-07	PS=7.9e-07
MI0<7>/I1<4>/NM1	BLB<59>#1	WL#234	I0<7>/I1<4>/QB#6	VSS#4
+ nmos1v	L=4.5e-08	W=1.2e-07
+ AD=2.75e-14	AS=2.75e-14	PD=6.8e-07	PS=6.8e-07
MI0<7>/I1<4>/NM3	I0<7>/I1<4>/QB#6	I0<7>/I1<4>/Q#3	VSS#359
+ VSS#4	nmos1v	L=4.5e-08	W=2.3e-07
+ AD=3.52e-14	AS=3.52e-14	PD=7.9e-07	PS=7.9e-07
MI0<7>/I1<3>/NM0	I0<7>/I1<3>/Q#6	WL#238	BL<60>#1	VSS#4
+ nmos1v	L=4.5e-08	W=1.2e-07
+ AD=2.75e-14	AS=2.75e-14	PD=6.8e-07	PS=6.8e-07
MI0<7>/I1<3>/NM2	I0<7>/I1<3>/Q#6	I0<7>/I1<3>/QB#2	VSS#365
+ VSS#4	nmos1v	L=4.5e-08	W=2.3e-07
+ AD=3.52e-14	AS=3.52e-14	PD=7.9e-07	PS=7.9e-07
MI0<7>/I1<3>/NM1	BLB<60>#3	WL#244	I0<7>/I1<3>/QB#4	VSS#4
+ nmos1v	L=4.5e-08	W=1.2e-07
+ AD=2.75e-14	AS=2.75e-14	PD=6.8e-07	PS=6.8e-07
MI0<7>/I1<3>/NM3	I0<7>/I1<3>/QB#4	I0<7>/I1<3>/Q	VSS#372
+ VSS#4	nmos1v	L=4.5e-08	W=2.3e-07
+ AD=3.52e-14	AS=3.52e-14	PD=7.9e-07	PS=7.9e-07
MI0<7>/I1<2>/NM0	I0<7>/I1<2>/Q#4	WL#232	BL<57>#1	VSS#4
+ nmos1v	L=4.5e-08	W=1.2e-07
+ AD=2.75e-14	AS=2.75e-14	PD=6.8e-07	PS=6.8e-07
MI0<7>/I1<2>/NM2	I0<7>/I1<2>/Q#4	I0<7>/I1<2>/QB	VSS#354
+ VSS#4	nmos1v	L=4.5e-08	W=2.3e-07
+ AD=3.52e-14	AS=3.52e-14	PD=7.9e-07	PS=7.9e-07
MI0<7>/I1<2>/NM1	BLB<57>#1	WL#226	I0<7>/I1<2>/QB#6	VSS#4
+ nmos1v	L=4.5e-08	W=1.2e-07
+ AD=2.75e-14	AS=2.75e-14	PD=6.8e-07	PS=6.8e-07
MI0<7>/I1<2>/NM3	I0<7>/I1<2>/QB#6	I0<7>/I1<2>/Q#3	VSS#347
+ VSS#4	nmos1v	L=4.5e-08	W=2.3e-07
+ AD=3.52e-14	AS=3.52e-14	PD=7.9e-07	PS=7.9e-07
MI0<7>/I1<1>/NM0	I0<7>/I1<1>/Q#6	WL#230	BL<58>#1	VSS#4
+ nmos1v	L=4.5e-08	W=1.2e-07
+ AD=2.75e-14	AS=2.75e-14	PD=6.8e-07	PS=6.8e-07
MI0<7>/I1<1>/NM2	I0<7>/I1<1>/Q#6	I0<7>/I1<1>/QB#2	VSS#353
+ VSS#4	nmos1v	L=4.5e-08	W=2.3e-07
+ AD=3.52e-14	AS=3.52e-14	PD=7.9e-07	PS=7.9e-07
MI0<7>/I1<1>/NM1	BLB<58>#3	WL#236	I0<7>/I1<1>/QB#4	VSS#4
+ nmos1v	L=4.5e-08	W=1.2e-07
+ AD=2.75e-14	AS=2.75e-14	PD=6.8e-07	PS=6.8e-07
MI0<7>/I1<1>/NM3	I0<7>/I1<1>/QB#4	I0<7>/I1<1>/Q	VSS#360
+ VSS#4	nmos1v	L=4.5e-08	W=2.3e-07
+ AD=3.52e-14	AS=3.52e-14	PD=7.9e-07	PS=7.9e-07
MI0<7>/I1<0>/NM0	I0<7>/I1<0>/Q#6	WL#222	BL<56>#1	VSS#4
+ nmos1v	L=4.5e-08	W=1.2e-07
+ AD=2.75e-14	AS=2.75e-14	PD=6.8e-07	PS=6.8e-07
MI0<7>/I1<0>/NM2	I0<7>/I1<0>/Q#6	I0<7>/I1<0>/QB#2	VSS#341
+ VSS#4	nmos1v	L=4.5e-08	W=2.3e-07
+ AD=3.52e-14	AS=3.52e-14	PD=7.9e-07	PS=7.9e-07
MI0<7>/I1<0>/NM1	BLB<56>#3	WL#228	I0<7>/I1<0>/QB#4	VSS#4
+ nmos1v	L=4.5e-08	W=1.2e-07
+ AD=2.75e-14	AS=2.75e-14	PD=6.8e-07	PS=6.8e-07
MI0<7>/I1<0>/NM3	I0<7>/I1<0>/QB#4	I0<7>/I1<0>/Q	VSS#348
+ VSS#4	nmos1v	L=4.5e-08	W=2.3e-07
+ AD=3.52e-14	AS=3.52e-14	PD=7.9e-07	PS=7.9e-07
MI0<6>/I1<7>/NM0	I0<6>/I1<7>/Q#4	WL#224	BL<55>#1	VSS#4
+ nmos1v	L=4.5e-08	W=1.2e-07
+ AD=2.75e-14	AS=2.75e-14	PD=6.8e-07	PS=6.8e-07
MI0<6>/I1<7>/NM2	I0<6>/I1<7>/Q#4	I0<6>/I1<7>/QB	VSS#342
+ VSS#4	nmos1v	L=4.5e-08	W=2.3e-07
+ AD=3.52e-14	AS=3.52e-14	PD=7.9e-07	PS=7.9e-07
MI0<6>/I1<7>/NM1	BLB<55>#1	WL#218	I0<6>/I1<7>/QB#6	VSS#4
+ nmos1v	L=4.5e-08	W=1.2e-07
+ AD=2.75e-14	AS=2.75e-14	PD=6.8e-07	PS=6.8e-07
MI0<6>/I1<7>/NM3	I0<6>/I1<7>/QB#6	I0<6>/I1<7>/Q#3	VSS#335
+ VSS#4	nmos1v	L=4.5e-08	W=2.3e-07
+ AD=3.52e-14	AS=3.52e-14	PD=7.9e-07	PS=7.9e-07
MI0<6>/I1<6>/NM0	I0<6>/I1<6>/Q#4	WL#216	BL<53>#1	VSS#4
+ nmos1v	L=4.5e-08	W=1.2e-07
+ AD=2.75e-14	AS=2.75e-14	PD=6.8e-07	PS=6.8e-07
MI0<6>/I1<6>/NM2	I0<6>/I1<6>/Q#4	I0<6>/I1<6>/QB	VSS#330
+ VSS#4	nmos1v	L=4.5e-08	W=2.3e-07
+ AD=3.52e-14	AS=3.52e-14	PD=7.9e-07	PS=7.9e-07
MI0<6>/I1<6>/NM1	BLB<53>#1	WL#210	I0<6>/I1<6>/QB#6	VSS#4
+ nmos1v	L=4.5e-08	W=1.2e-07
+ AD=2.75e-14	AS=2.75e-14	PD=6.8e-07	PS=6.8e-07
MI0<6>/I1<6>/NM3	I0<6>/I1<6>/QB#6	I0<6>/I1<6>/Q#3	VSS#323
+ VSS#4	nmos1v	L=4.5e-08	W=2.3e-07
+ AD=3.52e-14	AS=3.52e-14	PD=7.9e-07	PS=7.9e-07
MI0<6>/I1<5>/NM0	I0<6>/I1<5>/Q#6	WL#214	BL<54>#1	VSS#4
+ nmos1v	L=4.5e-08	W=1.2e-07
+ AD=2.75e-14	AS=2.75e-14	PD=6.8e-07	PS=6.8e-07
MI0<6>/I1<5>/NM2	I0<6>/I1<5>/Q#6	I0<6>/I1<5>/QB#2	VSS#329
+ VSS#4	nmos1v	L=4.5e-08	W=2.3e-07
+ AD=3.52e-14	AS=3.52e-14	PD=7.9e-07	PS=7.9e-07
MI0<6>/I1<5>/NM1	BLB<54>#3	WL#220	I0<6>/I1<5>/QB#4	VSS#4
+ nmos1v	L=4.5e-08	W=1.2e-07
+ AD=2.75e-14	AS=2.75e-14	PD=6.8e-07	PS=6.8e-07
MI0<6>/I1<5>/NM3	I0<6>/I1<5>/QB#4	I0<6>/I1<5>/Q	VSS#336
+ VSS#4	nmos1v	L=4.5e-08	W=2.3e-07
+ AD=3.52e-14	AS=3.52e-14	PD=7.9e-07	PS=7.9e-07
MI0<6>/I1<4>/NM0	I0<6>/I1<4>/Q#4	WL#208	BL<51>#1	VSS#4
+ nmos1v	L=4.5e-08	W=1.2e-07
+ AD=2.75e-14	AS=2.75e-14	PD=6.8e-07	PS=6.8e-07
MI0<6>/I1<4>/NM2	I0<6>/I1<4>/Q#4	I0<6>/I1<4>/QB	VSS#318
+ VSS#4	nmos1v	L=4.5e-08	W=2.3e-07
+ AD=3.52e-14	AS=3.52e-14	PD=7.9e-07	PS=7.9e-07
MI0<6>/I1<4>/NM1	BLB<51>#1	WL#202	I0<6>/I1<4>/QB#6	VSS#4
+ nmos1v	L=4.5e-08	W=1.2e-07
+ AD=2.75e-14	AS=2.75e-14	PD=6.8e-07	PS=6.8e-07
MI0<6>/I1<4>/NM3	I0<6>/I1<4>/QB#6	I0<6>/I1<4>/Q#3	VSS#311
+ VSS#4	nmos1v	L=4.5e-08	W=2.3e-07
+ AD=3.52e-14	AS=3.52e-14	PD=7.9e-07	PS=7.9e-07
MI0<6>/I1<3>/NM0	I0<6>/I1<3>/Q#6	WL#206	BL<52>#1	VSS#4
+ nmos1v	L=4.5e-08	W=1.2e-07
+ AD=2.75e-14	AS=2.75e-14	PD=6.8e-07	PS=6.8e-07
MI0<6>/I1<3>/NM2	I0<6>/I1<3>/Q#6	I0<6>/I1<3>/QB#2	VSS#317
+ VSS#4	nmos1v	L=4.5e-08	W=2.3e-07
+ AD=3.52e-14	AS=3.52e-14	PD=7.9e-07	PS=7.9e-07
MI0<6>/I1<3>/NM1	BLB<52>#3	WL#212	I0<6>/I1<3>/QB#4	VSS#4
+ nmos1v	L=4.5e-08	W=1.2e-07
+ AD=2.75e-14	AS=2.75e-14	PD=6.8e-07	PS=6.8e-07
MI0<6>/I1<3>/NM3	I0<6>/I1<3>/QB#4	I0<6>/I1<3>/Q	VSS#324
+ VSS#4	nmos1v	L=4.5e-08	W=2.3e-07
+ AD=3.52e-14	AS=3.52e-14	PD=7.9e-07	PS=7.9e-07
MI0<6>/I1<2>/NM0	I0<6>/I1<2>/Q#4	WL#200	BL<49>#1	VSS#4
+ nmos1v	L=4.5e-08	W=1.2e-07
+ AD=2.75e-14	AS=2.75e-14	PD=6.8e-07	PS=6.8e-07
MI0<6>/I1<2>/NM2	I0<6>/I1<2>/Q#4	I0<6>/I1<2>/QB	VSS#306
+ VSS#4	nmos1v	L=4.5e-08	W=2.3e-07
+ AD=3.52e-14	AS=3.52e-14	PD=7.9e-07	PS=7.9e-07
MI0<6>/I1<2>/NM1	BLB<49>#1	WL#194	I0<6>/I1<2>/QB#6	VSS#4
+ nmos1v	L=4.5e-08	W=1.2e-07
+ AD=2.75e-14	AS=2.75e-14	PD=6.8e-07	PS=6.8e-07
MI0<6>/I1<2>/NM3	I0<6>/I1<2>/QB#6	I0<6>/I1<2>/Q#3	VSS#299
+ VSS#4	nmos1v	L=4.5e-08	W=2.3e-07
+ AD=3.52e-14	AS=3.52e-14	PD=7.9e-07	PS=7.9e-07
MI0<6>/I1<1>/NM0	I0<6>/I1<1>/Q#6	WL#198	BL<50>#1	VSS#4
+ nmos1v	L=4.5e-08	W=1.2e-07
+ AD=2.75e-14	AS=2.75e-14	PD=6.8e-07	PS=6.8e-07
MI0<6>/I1<1>/NM2	I0<6>/I1<1>/Q#6	I0<6>/I1<1>/QB#2	VSS#305
+ VSS#4	nmos1v	L=4.5e-08	W=2.3e-07
+ AD=3.52e-14	AS=3.52e-14	PD=7.9e-07	PS=7.9e-07
MI0<6>/I1<1>/NM1	BLB<50>#3	WL#204	I0<6>/I1<1>/QB#4	VSS#4
+ nmos1v	L=4.5e-08	W=1.2e-07
+ AD=2.75e-14	AS=2.75e-14	PD=6.8e-07	PS=6.8e-07
MI0<6>/I1<1>/NM3	I0<6>/I1<1>/QB#4	I0<6>/I1<1>/Q	VSS#312
+ VSS#4	nmos1v	L=4.5e-08	W=2.3e-07
+ AD=3.52e-14	AS=3.52e-14	PD=7.9e-07	PS=7.9e-07
MI0<6>/I1<0>/NM0	I0<6>/I1<0>/Q#6	WL#190	BL<48>#1	VSS#4
+ nmos1v	L=4.5e-08	W=1.2e-07
+ AD=2.75e-14	AS=2.75e-14	PD=6.8e-07	PS=6.8e-07
MI0<6>/I1<0>/NM2	I0<6>/I1<0>/Q#6	I0<6>/I1<0>/QB#2	VSS#293
+ VSS#4	nmos1v	L=4.5e-08	W=2.3e-07
+ AD=3.52e-14	AS=3.52e-14	PD=7.9e-07	PS=7.9e-07
MI0<6>/I1<0>/NM1	BLB<48>#3	WL#196	I0<6>/I1<0>/QB#4	VSS#4
+ nmos1v	L=4.5e-08	W=1.2e-07
+ AD=2.75e-14	AS=2.75e-14	PD=6.8e-07	PS=6.8e-07
MI0<6>/I1<0>/NM3	I0<6>/I1<0>/QB#4	I0<6>/I1<0>/Q	VSS#300
+ VSS#4	nmos1v	L=4.5e-08	W=2.3e-07
+ AD=3.52e-14	AS=3.52e-14	PD=7.9e-07	PS=7.9e-07
MI0<5>/I1<7>/NM0	I0<5>/I1<7>/Q#4	WL#192	BL<47>#1	VSS#4
+ nmos1v	L=4.5e-08	W=1.2e-07
+ AD=2.75e-14	AS=2.75e-14	PD=6.8e-07	PS=6.8e-07
MI0<5>/I1<7>/NM2	I0<5>/I1<7>/Q#4	I0<5>/I1<7>/QB	VSS#294
+ VSS#4	nmos1v	L=4.5e-08	W=2.3e-07
+ AD=3.52e-14	AS=3.52e-14	PD=7.9e-07	PS=7.9e-07
MI0<5>/I1<7>/NM1	BLB<47>#1	WL#186	I0<5>/I1<7>/QB#6	VSS#4
+ nmos1v	L=4.5e-08	W=1.2e-07
+ AD=2.75e-14	AS=2.75e-14	PD=6.8e-07	PS=6.8e-07
MI0<5>/I1<7>/NM3	I0<5>/I1<7>/QB#6	I0<5>/I1<7>/Q#3	VSS#287
+ VSS#4	nmos1v	L=4.5e-08	W=2.3e-07
+ AD=3.52e-14	AS=3.52e-14	PD=7.9e-07	PS=7.9e-07
MI0<5>/I1<6>/NM0	I0<5>/I1<6>/Q#4	WL#184	BL<45>#1	VSS#4
+ nmos1v	L=4.5e-08	W=1.2e-07
+ AD=2.75e-14	AS=2.75e-14	PD=6.8e-07	PS=6.8e-07
MI0<5>/I1<6>/NM2	I0<5>/I1<6>/Q#4	I0<5>/I1<6>/QB	VSS#282
+ VSS#4	nmos1v	L=4.5e-08	W=2.3e-07
+ AD=3.52e-14	AS=3.52e-14	PD=7.9e-07	PS=7.9e-07
MI0<5>/I1<6>/NM1	BLB<45>#1	WL#178	I0<5>/I1<6>/QB#6	VSS#4
+ nmos1v	L=4.5e-08	W=1.2e-07
+ AD=2.75e-14	AS=2.75e-14	PD=6.8e-07	PS=6.8e-07
MI0<5>/I1<6>/NM3	I0<5>/I1<6>/QB#6	I0<5>/I1<6>/Q#3	VSS#275
+ VSS#4	nmos1v	L=4.5e-08	W=2.3e-07
+ AD=3.52e-14	AS=3.52e-14	PD=7.9e-07	PS=7.9e-07
MI0<5>/I1<5>/NM0	I0<5>/I1<5>/Q#6	WL#182	BL<46>#1	VSS#4
+ nmos1v	L=4.5e-08	W=1.2e-07
+ AD=2.75e-14	AS=2.75e-14	PD=6.8e-07	PS=6.8e-07
MI0<5>/I1<5>/NM2	I0<5>/I1<5>/Q#6	I0<5>/I1<5>/QB#2	VSS#281
+ VSS#4	nmos1v	L=4.5e-08	W=2.3e-07
+ AD=3.52e-14	AS=3.52e-14	PD=7.9e-07	PS=7.9e-07
MI0<5>/I1<5>/NM1	BLB<46>#3	WL#188	I0<5>/I1<5>/QB#4	VSS#4
+ nmos1v	L=4.5e-08	W=1.2e-07
+ AD=2.75e-14	AS=2.75e-14	PD=6.8e-07	PS=6.8e-07
MI0<5>/I1<5>/NM3	I0<5>/I1<5>/QB#4	I0<5>/I1<5>/Q	VSS#288
+ VSS#4	nmos1v	L=4.5e-08	W=2.3e-07
+ AD=3.52e-14	AS=3.52e-14	PD=7.9e-07	PS=7.9e-07
MI0<5>/I1<4>/NM0	I0<5>/I1<4>/Q#4	WL#176	BL<43>#1	VSS#4
+ nmos1v	L=4.5e-08	W=1.2e-07
+ AD=2.75e-14	AS=2.75e-14	PD=6.8e-07	PS=6.8e-07
MI0<5>/I1<4>/NM2	I0<5>/I1<4>/Q#4	I0<5>/I1<4>/QB	VSS#270
+ VSS#4	nmos1v	L=4.5e-08	W=2.3e-07
+ AD=3.52e-14	AS=3.52e-14	PD=7.9e-07	PS=7.9e-07
MI0<5>/I1<4>/NM1	BLB<43>#1	WL#170	I0<5>/I1<4>/QB#6	VSS#4
+ nmos1v	L=4.5e-08	W=1.2e-07
+ AD=2.75e-14	AS=2.75e-14	PD=6.8e-07	PS=6.8e-07
MI0<5>/I1<4>/NM3	I0<5>/I1<4>/QB#6	I0<5>/I1<4>/Q#3	VSS#263
+ VSS#4	nmos1v	L=4.5e-08	W=2.3e-07
+ AD=3.52e-14	AS=3.52e-14	PD=7.9e-07	PS=7.9e-07
MI0<5>/I1<3>/NM0	I0<5>/I1<3>/Q#6	WL#174	BL<44>#1	VSS#4
+ nmos1v	L=4.5e-08	W=1.2e-07
+ AD=2.75e-14	AS=2.75e-14	PD=6.8e-07	PS=6.8e-07
MI0<5>/I1<3>/NM2	I0<5>/I1<3>/Q#6	I0<5>/I1<3>/QB#2	VSS#269
+ VSS#4	nmos1v	L=4.5e-08	W=2.3e-07
+ AD=3.52e-14	AS=3.52e-14	PD=7.9e-07	PS=7.9e-07
MI0<5>/I1<3>/NM1	BLB<44>#3	WL#180	I0<5>/I1<3>/QB#4	VSS#4
+ nmos1v	L=4.5e-08	W=1.2e-07
+ AD=2.75e-14	AS=2.75e-14	PD=6.8e-07	PS=6.8e-07
MI0<5>/I1<3>/NM3	I0<5>/I1<3>/QB#4	I0<5>/I1<3>/Q	VSS#276
+ VSS#4	nmos1v	L=4.5e-08	W=2.3e-07
+ AD=3.52e-14	AS=3.52e-14	PD=7.9e-07	PS=7.9e-07
MI0<5>/I1<2>/NM0	I0<5>/I1<2>/Q#4	WL#168	BL<41>#1	VSS#4
+ nmos1v	L=4.5e-08	W=1.2e-07
+ AD=2.75e-14	AS=2.75e-14	PD=6.8e-07	PS=6.8e-07
MI0<5>/I1<2>/NM2	I0<5>/I1<2>/Q#4	I0<5>/I1<2>/QB	VSS#258
+ VSS#4	nmos1v	L=4.5e-08	W=2.3e-07
+ AD=3.52e-14	AS=3.52e-14	PD=7.9e-07	PS=7.9e-07
MI0<5>/I1<2>/NM1	BLB<41>#1	WL#162	I0<5>/I1<2>/QB#6	VSS#4
+ nmos1v	L=4.5e-08	W=1.2e-07
+ AD=2.75e-14	AS=2.75e-14	PD=6.8e-07	PS=6.8e-07
MI0<5>/I1<2>/NM3	I0<5>/I1<2>/QB#6	I0<5>/I1<2>/Q#3	VSS#251
+ VSS#4	nmos1v	L=4.5e-08	W=2.3e-07
+ AD=3.52e-14	AS=3.52e-14	PD=7.9e-07	PS=7.9e-07
MI0<5>/I1<1>/NM0	I0<5>/I1<1>/Q#6	WL#166	BL<42>#1	VSS#4
+ nmos1v	L=4.5e-08	W=1.2e-07
+ AD=2.75e-14	AS=2.75e-14	PD=6.8e-07	PS=6.8e-07
MI0<5>/I1<1>/NM2	I0<5>/I1<1>/Q#6	I0<5>/I1<1>/QB#2	VSS#257
+ VSS#4	nmos1v	L=4.5e-08	W=2.3e-07
+ AD=3.52e-14	AS=3.52e-14	PD=7.9e-07	PS=7.9e-07
MI0<5>/I1<1>/NM1	BLB<42>#3	WL#172	I0<5>/I1<1>/QB#4	VSS#4
+ nmos1v	L=4.5e-08	W=1.2e-07
+ AD=2.75e-14	AS=2.75e-14	PD=6.8e-07	PS=6.8e-07
MI0<5>/I1<1>/NM3	I0<5>/I1<1>/QB#4	I0<5>/I1<1>/Q	VSS#264
+ VSS#4	nmos1v	L=4.5e-08	W=2.3e-07
+ AD=3.52e-14	AS=3.52e-14	PD=7.9e-07	PS=7.9e-07
MI0<5>/I1<0>/NM0	I0<5>/I1<0>/Q#6	WL#158	BL<40>#1	VSS#4
+ nmos1v	L=4.5e-08	W=1.2e-07
+ AD=2.75e-14	AS=2.75e-14	PD=6.8e-07	PS=6.8e-07
MI0<5>/I1<0>/NM2	I0<5>/I1<0>/Q#6	I0<5>/I1<0>/QB#2	VSS#245
+ VSS#4	nmos1v	L=4.5e-08	W=2.3e-07
+ AD=3.52e-14	AS=3.52e-14	PD=7.9e-07	PS=7.9e-07
MI0<5>/I1<0>/NM1	BLB<40>#3	WL#164	I0<5>/I1<0>/QB#4	VSS#4
+ nmos1v	L=4.5e-08	W=1.2e-07
+ AD=2.75e-14	AS=2.75e-14	PD=6.8e-07	PS=6.8e-07
MI0<5>/I1<0>/NM3	I0<5>/I1<0>/QB#4	I0<5>/I1<0>/Q	VSS#252
+ VSS#4	nmos1v	L=4.5e-08	W=2.3e-07
+ AD=3.52e-14	AS=3.52e-14	PD=7.9e-07	PS=7.9e-07
MI0<4>/I1<7>/NM0	I0<4>/I1<7>/Q#4	WL#160	BL<39>#1	VSS#4
+ nmos1v	L=4.5e-08	W=1.2e-07
+ AD=2.75e-14	AS=2.75e-14	PD=6.8e-07	PS=6.8e-07
MI0<4>/I1<7>/NM2	I0<4>/I1<7>/Q#4	I0<4>/I1<7>/QB	VSS#246
+ VSS#4	nmos1v	L=4.5e-08	W=2.3e-07
+ AD=3.52e-14	AS=3.52e-14	PD=7.9e-07	PS=7.9e-07
MI0<4>/I1<7>/NM1	BLB<39>#1	WL#154	I0<4>/I1<7>/QB#6	VSS#4
+ nmos1v	L=4.5e-08	W=1.2e-07
+ AD=2.75e-14	AS=2.75e-14	PD=6.8e-07	PS=6.8e-07
MI0<4>/I1<7>/NM3	I0<4>/I1<7>/QB#6	I0<4>/I1<7>/Q#3	VSS#239
+ VSS#4	nmos1v	L=4.5e-08	W=2.3e-07
+ AD=3.52e-14	AS=3.52e-14	PD=7.9e-07	PS=7.9e-07
MI0<4>/I1<6>/NM0	I0<4>/I1<6>/Q#4	WL#152	BL<37>#1	VSS#4
+ nmos1v	L=4.5e-08	W=1.2e-07
+ AD=2.75e-14	AS=2.75e-14	PD=6.8e-07	PS=6.8e-07
MI0<4>/I1<6>/NM2	I0<4>/I1<6>/Q#4	I0<4>/I1<6>/QB	VSS#234
+ VSS#4	nmos1v	L=4.5e-08	W=2.3e-07
+ AD=3.52e-14	AS=3.52e-14	PD=7.9e-07	PS=7.9e-07
MI0<4>/I1<6>/NM1	BLB<37>#1	WL#146	I0<4>/I1<6>/QB#6	VSS#4
+ nmos1v	L=4.5e-08	W=1.2e-07
+ AD=2.75e-14	AS=2.75e-14	PD=6.8e-07	PS=6.8e-07
MI0<4>/I1<6>/NM3	I0<4>/I1<6>/QB#6	I0<4>/I1<6>/Q#3	VSS#227
+ VSS#4	nmos1v	L=4.5e-08	W=2.3e-07
+ AD=3.52e-14	AS=3.52e-14	PD=7.9e-07	PS=7.9e-07
MI0<4>/I1<5>/NM0	I0<4>/I1<5>/Q#6	WL#150	BL<38>#1	VSS#4
+ nmos1v	L=4.5e-08	W=1.2e-07
+ AD=2.75e-14	AS=2.75e-14	PD=6.8e-07	PS=6.8e-07
MI0<4>/I1<5>/NM2	I0<4>/I1<5>/Q#6	I0<4>/I1<5>/QB#2	VSS#233
+ VSS#4	nmos1v	L=4.5e-08	W=2.3e-07
+ AD=3.52e-14	AS=3.52e-14	PD=7.9e-07	PS=7.9e-07
MI0<4>/I1<5>/NM1	BLB<38>#3	WL#156	I0<4>/I1<5>/QB#4	VSS#4
+ nmos1v	L=4.5e-08	W=1.2e-07
+ AD=2.75e-14	AS=2.75e-14	PD=6.8e-07	PS=6.8e-07
MI0<4>/I1<5>/NM3	I0<4>/I1<5>/QB#4	I0<4>/I1<5>/Q	VSS#240
+ VSS#4	nmos1v	L=4.5e-08	W=2.3e-07
+ AD=3.52e-14	AS=3.52e-14	PD=7.9e-07	PS=7.9e-07
MI0<4>/I1<4>/NM0	I0<4>/I1<4>/Q#4	WL#144	BL<35>#1	VSS#4
+ nmos1v	L=4.5e-08	W=1.2e-07
+ AD=2.75e-14	AS=2.75e-14	PD=6.8e-07	PS=6.8e-07
MI0<4>/I1<4>/NM2	I0<4>/I1<4>/Q#4	I0<4>/I1<4>/QB	VSS#222
+ VSS#4	nmos1v	L=4.5e-08	W=2.3e-07
+ AD=3.52e-14	AS=3.52e-14	PD=7.9e-07	PS=7.9e-07
MI0<4>/I1<4>/NM1	BLB<35>#1	WL#138	I0<4>/I1<4>/QB#6	VSS#4
+ nmos1v	L=4.5e-08	W=1.2e-07
+ AD=2.75e-14	AS=2.75e-14	PD=6.8e-07	PS=6.8e-07
MI0<4>/I1<4>/NM3	I0<4>/I1<4>/QB#6	I0<4>/I1<4>/Q#3	VSS#215
+ VSS#4	nmos1v	L=4.5e-08	W=2.3e-07
+ AD=3.52e-14	AS=3.52e-14	PD=7.9e-07	PS=7.9e-07
MI0<4>/I1<3>/NM0	I0<4>/I1<3>/Q#6	WL#142	BL<36>#1	VSS#4
+ nmos1v	L=4.5e-08	W=1.2e-07
+ AD=2.75e-14	AS=2.75e-14	PD=6.8e-07	PS=6.8e-07
MI0<4>/I1<3>/NM2	I0<4>/I1<3>/Q#6	I0<4>/I1<3>/QB#2	VSS#221
+ VSS#4	nmos1v	L=4.5e-08	W=2.3e-07
+ AD=3.52e-14	AS=3.52e-14	PD=7.9e-07	PS=7.9e-07
MI0<4>/I1<3>/NM1	BLB<36>#3	WL#148	I0<4>/I1<3>/QB#4	VSS#4
+ nmos1v	L=4.5e-08	W=1.2e-07
+ AD=2.75e-14	AS=2.75e-14	PD=6.8e-07	PS=6.8e-07
MI0<4>/I1<3>/NM3	I0<4>/I1<3>/QB#4	I0<4>/I1<3>/Q	VSS#228
+ VSS#4	nmos1v	L=4.5e-08	W=2.3e-07
+ AD=3.52e-14	AS=3.52e-14	PD=7.9e-07	PS=7.9e-07
MI0<4>/I1<2>/NM0	I0<4>/I1<2>/Q#4	WL#136	BL<33>#1	VSS#4
+ nmos1v	L=4.5e-08	W=1.2e-07
+ AD=2.75e-14	AS=2.75e-14	PD=6.8e-07	PS=6.8e-07
MI0<4>/I1<2>/NM2	I0<4>/I1<2>/Q#4	I0<4>/I1<2>/QB	VSS#210
+ VSS#4	nmos1v	L=4.5e-08	W=2.3e-07
+ AD=3.52e-14	AS=3.52e-14	PD=7.9e-07	PS=7.9e-07
MI0<4>/I1<2>/NM1	BLB<33>#1	WL#130	I0<4>/I1<2>/QB#6	VSS#4
+ nmos1v	L=4.5e-08	W=1.2e-07
+ AD=2.75e-14	AS=2.75e-14	PD=6.8e-07	PS=6.8e-07
MI0<4>/I1<2>/NM3	I0<4>/I1<2>/QB#6	I0<4>/I1<2>/Q#3	VSS#203
+ VSS#4	nmos1v	L=4.5e-08	W=2.3e-07
+ AD=3.52e-14	AS=3.52e-14	PD=7.9e-07	PS=7.9e-07
MI0<4>/I1<1>/NM0	I0<4>/I1<1>/Q#6	WL#134	BL<34>#1	VSS#4
+ nmos1v	L=4.5e-08	W=1.2e-07
+ AD=2.75e-14	AS=2.75e-14	PD=6.8e-07	PS=6.8e-07
MI0<4>/I1<1>/NM2	I0<4>/I1<1>/Q#6	I0<4>/I1<1>/QB#2	VSS#209
+ VSS#4	nmos1v	L=4.5e-08	W=2.3e-07
+ AD=3.52e-14	AS=3.52e-14	PD=7.9e-07	PS=7.9e-07
MI0<4>/I1<1>/NM1	BLB<34>#3	WL#140	I0<4>/I1<1>/QB#4	VSS#4
+ nmos1v	L=4.5e-08	W=1.2e-07
+ AD=2.75e-14	AS=2.75e-14	PD=6.8e-07	PS=6.8e-07
MI0<4>/I1<1>/NM3	I0<4>/I1<1>/QB#4	I0<4>/I1<1>/Q	VSS#216
+ VSS#4	nmos1v	L=4.5e-08	W=2.3e-07
+ AD=3.52e-14	AS=3.52e-14	PD=7.9e-07	PS=7.9e-07
MI0<4>/I1<0>/NM0	I0<4>/I1<0>/Q#6	WL#126	BL<32>#1	VSS#4
+ nmos1v	L=4.5e-08	W=1.2e-07
+ AD=2.75e-14	AS=2.75e-14	PD=6.8e-07	PS=6.8e-07
MI0<4>/I1<0>/NM2	I0<4>/I1<0>/Q#6	I0<4>/I1<0>/QB#2	VSS#197
+ VSS#4	nmos1v	L=4.5e-08	W=2.3e-07
+ AD=3.52e-14	AS=3.52e-14	PD=7.9e-07	PS=7.9e-07
MI0<4>/I1<0>/NM1	BLB<32>#3	WL#132	I0<4>/I1<0>/QB#4	VSS#4
+ nmos1v	L=4.5e-08	W=1.2e-07
+ AD=2.75e-14	AS=2.75e-14	PD=6.8e-07	PS=6.8e-07
MI0<4>/I1<0>/NM3	I0<4>/I1<0>/QB#4	I0<4>/I1<0>/Q	VSS#204
+ VSS#4	nmos1v	L=4.5e-08	W=2.3e-07
+ AD=3.52e-14	AS=3.52e-14	PD=7.9e-07	PS=7.9e-07
MI0<3>/I1<7>/NM0	I0<3>/I1<7>/Q#4	WL#128	BL<31>#1	VSS#4
+ nmos1v	L=4.5e-08	W=1.2e-07
+ AD=2.75e-14	AS=2.75e-14	PD=6.8e-07	PS=6.8e-07
MI0<3>/I1<7>/NM2	I0<3>/I1<7>/Q#4	I0<3>/I1<7>/QB	VSS#198
+ VSS#4	nmos1v	L=4.5e-08	W=2.3e-07
+ AD=3.52e-14	AS=3.52e-14	PD=7.9e-07	PS=7.9e-07
MI0<3>/I1<7>/NM1	BLB<31>#1	WL#122	I0<3>/I1<7>/QB#6	VSS#4
+ nmos1v	L=4.5e-08	W=1.2e-07
+ AD=2.75e-14	AS=2.75e-14	PD=6.8e-07	PS=6.8e-07
MI0<3>/I1<7>/NM3	I0<3>/I1<7>/QB#6	I0<3>/I1<7>/Q#3	VSS#191
+ VSS#4	nmos1v	L=4.5e-08	W=2.3e-07
+ AD=3.52e-14	AS=3.52e-14	PD=7.9e-07	PS=7.9e-07
MI0<3>/I1<6>/NM0	I0<3>/I1<6>/Q#4	WL#120	BL<29>#1	VSS#4
+ nmos1v	L=4.5e-08	W=1.2e-07
+ AD=2.75e-14	AS=2.75e-14	PD=6.8e-07	PS=6.8e-07
MI0<3>/I1<6>/NM2	I0<3>/I1<6>/Q#4	I0<3>/I1<6>/QB	VSS#186
+ VSS#4	nmos1v	L=4.5e-08	W=2.3e-07
+ AD=3.52e-14	AS=3.52e-14	PD=7.9e-07	PS=7.9e-07
MI0<3>/I1<6>/NM1	BLB<29>#1	WL#114	I0<3>/I1<6>/QB#6	VSS#4
+ nmos1v	L=4.5e-08	W=1.2e-07
+ AD=2.75e-14	AS=2.75e-14	PD=6.8e-07	PS=6.8e-07
MI0<3>/I1<6>/NM3	I0<3>/I1<6>/QB#6	I0<3>/I1<6>/Q#3	VSS#179
+ VSS#4	nmos1v	L=4.5e-08	W=2.3e-07
+ AD=3.52e-14	AS=3.52e-14	PD=7.9e-07	PS=7.9e-07
MI0<3>/I1<5>/NM0	I0<3>/I1<5>/Q#6	WL#118	BL<30>#1	VSS#4
+ nmos1v	L=4.5e-08	W=1.2e-07
+ AD=2.75e-14	AS=2.75e-14	PD=6.8e-07	PS=6.8e-07
MI0<3>/I1<5>/NM2	I0<3>/I1<5>/Q#6	I0<3>/I1<5>/QB#2	VSS#185
+ VSS#4	nmos1v	L=4.5e-08	W=2.3e-07
+ AD=3.52e-14	AS=3.52e-14	PD=7.9e-07	PS=7.9e-07
MI0<3>/I1<5>/NM1	BLB<30>#3	WL#124	I0<3>/I1<5>/QB#4	VSS#4
+ nmos1v	L=4.5e-08	W=1.2e-07
+ AD=2.75e-14	AS=2.75e-14	PD=6.8e-07	PS=6.8e-07
MI0<3>/I1<5>/NM3	I0<3>/I1<5>/QB#4	I0<3>/I1<5>/Q	VSS#192
+ VSS#4	nmos1v	L=4.5e-08	W=2.3e-07
+ AD=3.52e-14	AS=3.52e-14	PD=7.9e-07	PS=7.9e-07
MI0<3>/I1<4>/NM0	I0<3>/I1<4>/Q#4	WL#112	BL<27>#1	VSS#4
+ nmos1v	L=4.5e-08	W=1.2e-07
+ AD=2.75e-14	AS=2.75e-14	PD=6.8e-07	PS=6.8e-07
MI0<3>/I1<4>/NM2	I0<3>/I1<4>/Q#4	I0<3>/I1<4>/QB	VSS#174
+ VSS#4	nmos1v	L=4.5e-08	W=2.3e-07
+ AD=3.52e-14	AS=3.52e-14	PD=7.9e-07	PS=7.9e-07
MI0<3>/I1<4>/NM1	BLB<27>#1	WL#106	I0<3>/I1<4>/QB#6	VSS#4
+ nmos1v	L=4.5e-08	W=1.2e-07
+ AD=2.75e-14	AS=2.75e-14	PD=6.8e-07	PS=6.8e-07
MI0<3>/I1<4>/NM3	I0<3>/I1<4>/QB#6	I0<3>/I1<4>/Q#3	VSS#167
+ VSS#4	nmos1v	L=4.5e-08	W=2.3e-07
+ AD=3.52e-14	AS=3.52e-14	PD=7.9e-07	PS=7.9e-07
MI0<3>/I1<3>/NM0	I0<3>/I1<3>/Q#6	WL#110	BL<28>#1	VSS#4
+ nmos1v	L=4.5e-08	W=1.2e-07
+ AD=2.75e-14	AS=2.75e-14	PD=6.8e-07	PS=6.8e-07
MI0<3>/I1<3>/NM2	I0<3>/I1<3>/Q#6	I0<3>/I1<3>/QB#2	VSS#173
+ VSS#4	nmos1v	L=4.5e-08	W=2.3e-07
+ AD=3.52e-14	AS=3.52e-14	PD=7.9e-07	PS=7.9e-07
MI0<3>/I1<3>/NM1	BLB<28>#3	WL#116	I0<3>/I1<3>/QB#4	VSS#4
+ nmos1v	L=4.5e-08	W=1.2e-07
+ AD=2.75e-14	AS=2.75e-14	PD=6.8e-07	PS=6.8e-07
MI0<3>/I1<3>/NM3	I0<3>/I1<3>/QB#4	I0<3>/I1<3>/Q	VSS#180
+ VSS#4	nmos1v	L=4.5e-08	W=2.3e-07
+ AD=3.52e-14	AS=3.52e-14	PD=7.9e-07	PS=7.9e-07
MI0<3>/I1<2>/NM0	I0<3>/I1<2>/Q#4	WL#104	BL<25>#1	VSS#4
+ nmos1v	L=4.5e-08	W=1.2e-07
+ AD=2.75e-14	AS=2.75e-14	PD=6.8e-07	PS=6.8e-07
MI0<3>/I1<2>/NM2	I0<3>/I1<2>/Q#4	I0<3>/I1<2>/QB	VSS#162
+ VSS#4	nmos1v	L=4.5e-08	W=2.3e-07
+ AD=3.52e-14	AS=3.52e-14	PD=7.9e-07	PS=7.9e-07
MI0<3>/I1<2>/NM1	BLB<25>#1	WL#98	I0<3>/I1<2>/QB#6	VSS#4
+ nmos1v	L=4.5e-08	W=1.2e-07
+ AD=2.75e-14	AS=2.75e-14	PD=6.8e-07	PS=6.8e-07
MI0<3>/I1<2>/NM3	I0<3>/I1<2>/QB#6	I0<3>/I1<2>/Q#3	VSS#155
+ VSS#4	nmos1v	L=4.5e-08	W=2.3e-07
+ AD=3.52e-14	AS=3.52e-14	PD=7.9e-07	PS=7.9e-07
MI0<3>/I1<1>/NM0	I0<3>/I1<1>/Q#6	WL#102	BL<26>#1	VSS#4
+ nmos1v	L=4.5e-08	W=1.2e-07
+ AD=2.75e-14	AS=2.75e-14	PD=6.8e-07	PS=6.8e-07
MI0<3>/I1<1>/NM2	I0<3>/I1<1>/Q#6	I0<3>/I1<1>/QB#2	VSS#161
+ VSS#4	nmos1v	L=4.5e-08	W=2.3e-07
+ AD=3.52e-14	AS=3.52e-14	PD=7.9e-07	PS=7.9e-07
MI0<3>/I1<1>/NM1	BLB<26>#3	WL#108	I0<3>/I1<1>/QB#4	VSS#4
+ nmos1v	L=4.5e-08	W=1.2e-07
+ AD=2.75e-14	AS=2.75e-14	PD=6.8e-07	PS=6.8e-07
MI0<3>/I1<1>/NM3	I0<3>/I1<1>/QB#4	I0<3>/I1<1>/Q	VSS#168
+ VSS#4	nmos1v	L=4.5e-08	W=2.3e-07
+ AD=3.52e-14	AS=3.52e-14	PD=7.9e-07	PS=7.9e-07
MI0<3>/I1<0>/NM0	I0<3>/I1<0>/Q#6	WL#94	BL<24>#1	VSS#4
+ nmos1v	L=4.5e-08	W=1.2e-07
+ AD=2.75e-14	AS=2.75e-14	PD=6.8e-07	PS=6.8e-07
MI0<3>/I1<0>/NM2	I0<3>/I1<0>/Q#6	I0<3>/I1<0>/QB#2	VSS#149
+ VSS#4	nmos1v	L=4.5e-08	W=2.3e-07
+ AD=3.52e-14	AS=3.52e-14	PD=7.9e-07	PS=7.9e-07
MI0<3>/I1<0>/NM1	BLB<24>#3	WL#100	I0<3>/I1<0>/QB#4	VSS#4
+ nmos1v	L=4.5e-08	W=1.2e-07
+ AD=2.75e-14	AS=2.75e-14	PD=6.8e-07	PS=6.8e-07
MI0<3>/I1<0>/NM3	I0<3>/I1<0>/QB#4	I0<3>/I1<0>/Q	VSS#156
+ VSS#4	nmos1v	L=4.5e-08	W=2.3e-07
+ AD=3.52e-14	AS=3.52e-14	PD=7.9e-07	PS=7.9e-07
MI0<2>/I1<7>/NM0	I0<2>/I1<7>/Q#4	WL#96	BL<23>#1	VSS#4
+ nmos1v	L=4.5e-08	W=1.2e-07
+ AD=2.75e-14	AS=2.75e-14	PD=6.8e-07	PS=6.8e-07
MI0<2>/I1<7>/NM2	I0<2>/I1<7>/Q#4	I0<2>/I1<7>/QB	VSS#150
+ VSS#4	nmos1v	L=4.5e-08	W=2.3e-07
+ AD=3.52e-14	AS=3.52e-14	PD=7.9e-07	PS=7.9e-07
MI0<2>/I1<7>/NM1	BLB<23>#1	WL#90	I0<2>/I1<7>/QB#6	VSS#4
+ nmos1v	L=4.5e-08	W=1.2e-07
+ AD=2.75e-14	AS=2.75e-14	PD=6.8e-07	PS=6.8e-07
MI0<2>/I1<7>/NM3	I0<2>/I1<7>/QB#6	I0<2>/I1<7>/Q#3	VSS#143
+ VSS#4	nmos1v	L=4.5e-08	W=2.3e-07
+ AD=3.52e-14	AS=3.52e-14	PD=7.9e-07	PS=7.9e-07
MI0<2>/I1<6>/NM0	I0<2>/I1<6>/Q#4	WL#88	BL<21>#1	VSS#4
+ nmos1v	L=4.5e-08	W=1.2e-07
+ AD=2.75e-14	AS=2.75e-14	PD=6.8e-07	PS=6.8e-07
MI0<2>/I1<6>/NM2	I0<2>/I1<6>/Q#4	I0<2>/I1<6>/QB	VSS#138
+ VSS#4	nmos1v	L=4.5e-08	W=2.3e-07
+ AD=3.52e-14	AS=3.52e-14	PD=7.9e-07	PS=7.9e-07
MI0<2>/I1<6>/NM1	BLB<21>#1	WL#82	I0<2>/I1<6>/QB#6	VSS#4
+ nmos1v	L=4.5e-08	W=1.2e-07
+ AD=2.75e-14	AS=2.75e-14	PD=6.8e-07	PS=6.8e-07
MI0<2>/I1<6>/NM3	I0<2>/I1<6>/QB#6	I0<2>/I1<6>/Q#3	VSS#131
+ VSS#4	nmos1v	L=4.5e-08	W=2.3e-07
+ AD=3.52e-14	AS=3.52e-14	PD=7.9e-07	PS=7.9e-07
MI0<2>/I1<5>/NM0	I0<2>/I1<5>/Q#6	WL#86	BL<22>#1	VSS#4
+ nmos1v	L=4.5e-08	W=1.2e-07
+ AD=2.75e-14	AS=2.75e-14	PD=6.8e-07	PS=6.8e-07
MI0<2>/I1<5>/NM2	I0<2>/I1<5>/Q#6	I0<2>/I1<5>/QB#2	VSS#137
+ VSS#4	nmos1v	L=4.5e-08	W=2.3e-07
+ AD=3.52e-14	AS=3.52e-14	PD=7.9e-07	PS=7.9e-07
MI0<2>/I1<5>/NM1	BLB<22>#3	WL#92	I0<2>/I1<5>/QB#4	VSS#4
+ nmos1v	L=4.5e-08	W=1.2e-07
+ AD=2.75e-14	AS=2.75e-14	PD=6.8e-07	PS=6.8e-07
MI0<2>/I1<5>/NM3	I0<2>/I1<5>/QB#4	I0<2>/I1<5>/Q	VSS#144
+ VSS#4	nmos1v	L=4.5e-08	W=2.3e-07
+ AD=3.52e-14	AS=3.52e-14	PD=7.9e-07	PS=7.9e-07
MI0<2>/I1<4>/NM0	I0<2>/I1<4>/Q#4	WL#80	BL<19>#1	VSS#4
+ nmos1v	L=4.5e-08	W=1.2e-07
+ AD=2.75e-14	AS=2.75e-14	PD=6.8e-07	PS=6.8e-07
MI0<2>/I1<4>/NM2	I0<2>/I1<4>/Q#4	I0<2>/I1<4>/QB	VSS#126
+ VSS#4	nmos1v	L=4.5e-08	W=2.3e-07
+ AD=3.52e-14	AS=3.52e-14	PD=7.9e-07	PS=7.9e-07
MI0<2>/I1<4>/NM1	BLB<19>#1	WL#74	I0<2>/I1<4>/QB#6	VSS#4
+ nmos1v	L=4.5e-08	W=1.2e-07
+ AD=2.75e-14	AS=2.75e-14	PD=6.8e-07	PS=6.8e-07
MI0<2>/I1<4>/NM3	I0<2>/I1<4>/QB#6	I0<2>/I1<4>/Q#3	VSS#119
+ VSS#4	nmos1v	L=4.5e-08	W=2.3e-07
+ AD=3.52e-14	AS=3.52e-14	PD=7.9e-07	PS=7.9e-07
MI0<2>/I1<3>/NM0	I0<2>/I1<3>/Q#6	WL#78	BL<20>#1	VSS#4
+ nmos1v	L=4.5e-08	W=1.2e-07
+ AD=2.75e-14	AS=2.75e-14	PD=6.8e-07	PS=6.8e-07
MI0<2>/I1<3>/NM2	I0<2>/I1<3>/Q#6	I0<2>/I1<3>/QB#2	VSS#125
+ VSS#4	nmos1v	L=4.5e-08	W=2.3e-07
+ AD=3.52e-14	AS=3.52e-14	PD=7.9e-07	PS=7.9e-07
MI0<2>/I1<3>/NM1	BLB<20>#3	WL#84	I0<2>/I1<3>/QB#4	VSS#4
+ nmos1v	L=4.5e-08	W=1.2e-07
+ AD=2.75e-14	AS=2.75e-14	PD=6.8e-07	PS=6.8e-07
MI0<2>/I1<3>/NM3	I0<2>/I1<3>/QB#4	I0<2>/I1<3>/Q	VSS#132
+ VSS#4	nmos1v	L=4.5e-08	W=2.3e-07
+ AD=3.52e-14	AS=3.52e-14	PD=7.9e-07	PS=7.9e-07
MI0<2>/I1<2>/NM0	I0<2>/I1<2>/Q#4	WL#72	BL<17>#1	VSS#4
+ nmos1v	L=4.5e-08	W=1.2e-07
+ AD=2.75e-14	AS=2.75e-14	PD=6.8e-07	PS=6.8e-07
MI0<2>/I1<2>/NM2	I0<2>/I1<2>/Q#4	I0<2>/I1<2>/QB	VSS#114
+ VSS#4	nmos1v	L=4.5e-08	W=2.3e-07
+ AD=3.52e-14	AS=3.52e-14	PD=7.9e-07	PS=7.9e-07
MI0<2>/I1<2>/NM1	BLB<17>#1	WL#66	I0<2>/I1<2>/QB#6	VSS#4
+ nmos1v	L=4.5e-08	W=1.2e-07
+ AD=2.75e-14	AS=2.75e-14	PD=6.8e-07	PS=6.8e-07
MI0<2>/I1<2>/NM3	I0<2>/I1<2>/QB#6	I0<2>/I1<2>/Q#3	VSS#107
+ VSS#4	nmos1v	L=4.5e-08	W=2.3e-07
+ AD=3.52e-14	AS=3.52e-14	PD=7.9e-07	PS=7.9e-07
MI0<2>/I1<1>/NM0	I0<2>/I1<1>/Q#6	WL#70	BL<18>#1	VSS#4
+ nmos1v	L=4.5e-08	W=1.2e-07
+ AD=2.75e-14	AS=2.75e-14	PD=6.8e-07	PS=6.8e-07
MI0<2>/I1<1>/NM2	I0<2>/I1<1>/Q#6	I0<2>/I1<1>/QB#2	VSS#113
+ VSS#4	nmos1v	L=4.5e-08	W=2.3e-07
+ AD=3.52e-14	AS=3.52e-14	PD=7.9e-07	PS=7.9e-07
MI0<2>/I1<1>/NM1	BLB<18>#3	WL#76	I0<2>/I1<1>/QB#4	VSS#4
+ nmos1v	L=4.5e-08	W=1.2e-07
+ AD=2.75e-14	AS=2.75e-14	PD=6.8e-07	PS=6.8e-07
MI0<2>/I1<1>/NM3	I0<2>/I1<1>/QB#4	I0<2>/I1<1>/Q	VSS#120
+ VSS#4	nmos1v	L=4.5e-08	W=2.3e-07
+ AD=3.52e-14	AS=3.52e-14	PD=7.9e-07	PS=7.9e-07
MI0<2>/I1<0>/NM0	I0<2>/I1<0>/Q#6	WL#62	BL<16>#1	VSS#4
+ nmos1v	L=4.5e-08	W=1.2e-07
+ AD=2.75e-14	AS=2.75e-14	PD=6.8e-07	PS=6.8e-07
MI0<2>/I1<0>/NM2	I0<2>/I1<0>/Q#6	I0<2>/I1<0>/QB#2	VSS#101
+ VSS#4	nmos1v	L=4.5e-08	W=2.3e-07
+ AD=3.52e-14	AS=3.52e-14	PD=7.9e-07	PS=7.9e-07
MI0<2>/I1<0>/NM1	BLB<16>#3	WL#68	I0<2>/I1<0>/QB#4	VSS#4
+ nmos1v	L=4.5e-08	W=1.2e-07
+ AD=2.75e-14	AS=2.75e-14	PD=6.8e-07	PS=6.8e-07
MI0<2>/I1<0>/NM3	I0<2>/I1<0>/QB#4	I0<2>/I1<0>/Q	VSS#108
+ VSS#4	nmos1v	L=4.5e-08	W=2.3e-07
+ AD=3.52e-14	AS=3.52e-14	PD=7.9e-07	PS=7.9e-07
MI0<1>/I1<7>/NM0	I0<1>/I1<7>/Q#4	WL#64	BL<15>#1	VSS#4
+ nmos1v	L=4.5e-08	W=1.2e-07
+ AD=2.75e-14	AS=2.75e-14	PD=6.8e-07	PS=6.8e-07
MI0<1>/I1<7>/NM2	I0<1>/I1<7>/Q#4	I0<1>/I1<7>/QB	VSS#102
+ VSS#4	nmos1v	L=4.5e-08	W=2.3e-07
+ AD=3.52e-14	AS=3.52e-14	PD=7.9e-07	PS=7.9e-07
MI0<1>/I1<7>/NM1	BLB<15>#1	WL#58	I0<1>/I1<7>/QB#6	VSS#4
+ nmos1v	L=4.5e-08	W=1.2e-07
+ AD=2.75e-14	AS=2.75e-14	PD=6.8e-07	PS=6.8e-07
MI0<1>/I1<7>/NM3	I0<1>/I1<7>/QB#6	I0<1>/I1<7>/Q#3	VSS#95
+ VSS#4	nmos1v	L=4.5e-08	W=2.3e-07
+ AD=3.52e-14	AS=3.52e-14	PD=7.9e-07	PS=7.9e-07
MI0<1>/I1<6>/NM0	I0<1>/I1<6>/Q#4	WL#56	BL<13>#1	VSS#4
+ nmos1v	L=4.5e-08	W=1.2e-07
+ AD=2.75e-14	AS=2.75e-14	PD=6.8e-07	PS=6.8e-07
MI0<1>/I1<6>/NM2	I0<1>/I1<6>/Q#4	I0<1>/I1<6>/QB	VSS#90	VSS#4
+ nmos1v	L=4.5e-08	W=2.3e-07
+ AD=3.52e-14	AS=3.52e-14	PD=7.9e-07	PS=7.9e-07
MI0<1>/I1<6>/NM1	BLB<13>#1	WL#50	I0<1>/I1<6>/QB#6	VSS#4
+ nmos1v	L=4.5e-08	W=1.2e-07
+ AD=2.75e-14	AS=2.75e-14	PD=6.8e-07	PS=6.8e-07
MI0<1>/I1<6>/NM3	I0<1>/I1<6>/QB#6	I0<1>/I1<6>/Q#3	VSS#83
+ VSS#4	nmos1v	L=4.5e-08	W=2.3e-07
+ AD=3.52e-14	AS=3.52e-14	PD=7.9e-07	PS=7.9e-07
MI0<1>/I1<5>/NM0	I0<1>/I1<5>/Q#6	WL#54	BL<14>#1	VSS#4
+ nmos1v	L=4.5e-08	W=1.2e-07
+ AD=2.75e-14	AS=2.75e-14	PD=6.8e-07	PS=6.8e-07
MI0<1>/I1<5>/NM2	I0<1>/I1<5>/Q#6	I0<1>/I1<5>/QB#2	VSS#89
+ VSS#4	nmos1v	L=4.5e-08	W=2.3e-07
+ AD=3.52e-14	AS=3.52e-14	PD=7.9e-07	PS=7.9e-07
MI0<1>/I1<5>/NM1	BLB<14>#3	WL#60	I0<1>/I1<5>/QB#4	VSS#4
+ nmos1v	L=4.5e-08	W=1.2e-07
+ AD=2.75e-14	AS=2.75e-14	PD=6.8e-07	PS=6.8e-07
MI0<1>/I1<5>/NM3	I0<1>/I1<5>/QB#4	I0<1>/I1<5>/Q	VSS#96	VSS#4
+ nmos1v	L=4.5e-08	W=2.3e-07
+ AD=3.52e-14	AS=3.52e-14	PD=7.9e-07	PS=7.9e-07
MI0<1>/I1<4>/NM0	I0<1>/I1<4>/Q#4	WL#48	BL<11>#1	VSS#4
+ nmos1v	L=4.5e-08	W=1.2e-07
+ AD=2.75e-14	AS=2.75e-14	PD=6.8e-07	PS=6.8e-07
MI0<1>/I1<4>/NM2	I0<1>/I1<4>/Q#4	I0<1>/I1<4>/QB	VSS#78	VSS#4
+ nmos1v	L=4.5e-08	W=2.3e-07
+ AD=3.52e-14	AS=3.52e-14	PD=7.9e-07	PS=7.9e-07
MI0<1>/I1<4>/NM1	BLB<11>#1	WL#42	I0<1>/I1<4>/QB#6	VSS#4
+ nmos1v	L=4.5e-08	W=1.2e-07
+ AD=2.75e-14	AS=2.75e-14	PD=6.8e-07	PS=6.8e-07
MI0<1>/I1<4>/NM3	I0<1>/I1<4>/QB#6	I0<1>/I1<4>/Q#3	VSS#71
+ VSS#4	nmos1v	L=4.5e-08	W=2.3e-07
+ AD=3.52e-14	AS=3.52e-14	PD=7.9e-07	PS=7.9e-07
MI0<1>/I1<3>/NM0	I0<1>/I1<3>/Q#6	WL#46	BL<12>#1	VSS#4
+ nmos1v	L=4.5e-08	W=1.2e-07
+ AD=2.75e-14	AS=2.75e-14	PD=6.8e-07	PS=6.8e-07
MI0<1>/I1<3>/NM2	I0<1>/I1<3>/Q#6	I0<1>/I1<3>/QB#2	VSS#77
+ VSS#4	nmos1v	L=4.5e-08	W=2.3e-07
+ AD=3.52e-14	AS=3.52e-14	PD=7.9e-07	PS=7.9e-07
MI0<1>/I1<3>/NM1	BLB<12>#3	WL#52	I0<1>/I1<3>/QB#4	VSS#4
+ nmos1v	L=4.5e-08	W=1.2e-07
+ AD=2.75e-14	AS=2.75e-14	PD=6.8e-07	PS=6.8e-07
MI0<1>/I1<3>/NM3	I0<1>/I1<3>/QB#4	I0<1>/I1<3>/Q	VSS#84	VSS#4
+ nmos1v	L=4.5e-08	W=2.3e-07
+ AD=3.52e-14	AS=3.52e-14	PD=7.9e-07	PS=7.9e-07
MI0<1>/I1<2>/NM0	I0<1>/I1<2>/Q#4	WL#40	BL<9>#1	VSS#4
+ nmos1v	L=4.5e-08	W=1.2e-07
+ AD=2.75e-14	AS=2.75e-14	PD=6.8e-07	PS=6.8e-07
MI0<1>/I1<2>/NM2	I0<1>/I1<2>/Q#4	I0<1>/I1<2>/QB	VSS#66	VSS#4
+ nmos1v	L=4.5e-08	W=2.3e-07
+ AD=3.52e-14	AS=3.52e-14	PD=7.9e-07	PS=7.9e-07
MI0<1>/I1<2>/NM1	BLB<9>#1	WL#34	I0<1>/I1<2>/QB#6	VSS#4
+ nmos1v	L=4.5e-08	W=1.2e-07
+ AD=2.75e-14	AS=2.75e-14	PD=6.8e-07	PS=6.8e-07
MI0<1>/I1<2>/NM3	I0<1>/I1<2>/QB#6	I0<1>/I1<2>/Q#3	VSS#59
+ VSS#4	nmos1v	L=4.5e-08	W=2.3e-07
+ AD=3.52e-14	AS=3.52e-14	PD=7.9e-07	PS=7.9e-07
MI0<1>/I1<1>/NM0	I0<1>/I1<1>/Q#6	WL#38	BL<10>#1	VSS#4
+ nmos1v	L=4.5e-08	W=1.2e-07
+ AD=2.75e-14	AS=2.75e-14	PD=6.8e-07	PS=6.8e-07
MI0<1>/I1<1>/NM2	I0<1>/I1<1>/Q#6	I0<1>/I1<1>/QB#2	VSS#65
+ VSS#4	nmos1v	L=4.5e-08	W=2.3e-07
+ AD=3.52e-14	AS=3.52e-14	PD=7.9e-07	PS=7.9e-07
MI0<1>/I1<1>/NM1	BLB<10>#3	WL#44	I0<1>/I1<1>/QB#4	VSS#4
+ nmos1v	L=4.5e-08	W=1.2e-07
+ AD=2.75e-14	AS=2.75e-14	PD=6.8e-07	PS=6.8e-07
MI0<1>/I1<1>/NM3	I0<1>/I1<1>/QB#4	I0<1>/I1<1>/Q	VSS#72	VSS#4
+ nmos1v	L=4.5e-08	W=2.3e-07
+ AD=3.52e-14	AS=3.52e-14	PD=7.9e-07	PS=7.9e-07
MI0<1>/I1<0>/NM0	I0<1>/I1<0>/Q#6	WL#30	BL<8>#1	VSS#4
+ nmos1v	L=4.5e-08	W=1.2e-07
+ AD=2.75e-14	AS=2.75e-14	PD=6.8e-07	PS=6.8e-07
MI0<1>/I1<0>/NM2	I0<1>/I1<0>/Q#6	I0<1>/I1<0>/QB#2	VSS#53
+ VSS#4	nmos1v	L=4.5e-08	W=2.3e-07
+ AD=3.52e-14	AS=3.52e-14	PD=7.9e-07	PS=7.9e-07
MI0<1>/I1<0>/NM1	BLB<8>#3	WL#36	I0<1>/I1<0>/QB#4	VSS#4
+ nmos1v	L=4.5e-08	W=1.2e-07
+ AD=2.75e-14	AS=2.75e-14	PD=6.8e-07	PS=6.8e-07
MI0<1>/I1<0>/NM3	I0<1>/I1<0>/QB#4	I0<1>/I1<0>/Q	VSS#60	VSS#4
+ nmos1v	L=4.5e-08	W=2.3e-07
+ AD=3.52e-14	AS=3.52e-14	PD=7.9e-07	PS=7.9e-07
MI0<0>/I1<7>/NM0	I0<0>/I1<7>/Q#4	WL#32	BL<7>#1	VSS#4
+ nmos1v	L=4.5e-08	W=1.2e-07
+ AD=2.75e-14	AS=2.75e-14	PD=6.8e-07	PS=6.8e-07
MI0<0>/I1<7>/NM2	I0<0>/I1<7>/Q#4	I0<0>/I1<7>/QB	VSS#54	VSS#4
+ nmos1v	L=4.5e-08	W=2.3e-07
+ AD=3.52e-14	AS=3.52e-14	PD=7.9e-07	PS=7.9e-07
MI0<0>/I1<7>/NM1	BLB<7>#1	WL#26	I0<0>/I1<7>/QB#6	VSS#4
+ nmos1v	L=4.5e-08	W=1.2e-07
+ AD=2.75e-14	AS=2.75e-14	PD=6.8e-07	PS=6.8e-07
MI0<0>/I1<7>/NM3	I0<0>/I1<7>/QB#6	I0<0>/I1<7>/Q#3	VSS#47
+ VSS#4	nmos1v	L=4.5e-08	W=2.3e-07
+ AD=3.52e-14	AS=3.52e-14	PD=7.9e-07	PS=7.9e-07
MI0<0>/I1<6>/NM0	I0<0>/I1<6>/Q#4	WL#24	BL<5>#1	VSS#4
+ nmos1v	L=4.5e-08	W=1.2e-07
+ AD=2.75e-14	AS=2.75e-14	PD=6.8e-07	PS=6.8e-07
MI0<0>/I1<6>/NM2	I0<0>/I1<6>/Q#4	I0<0>/I1<6>/QB	VSS#42	VSS#4
+ nmos1v	L=4.5e-08	W=2.3e-07
+ AD=3.52e-14	AS=3.52e-14	PD=7.9e-07	PS=7.9e-07
MI0<0>/I1<6>/NM1	BLB<5>#1	WL#18	I0<0>/I1<6>/QB#6	VSS#4
+ nmos1v	L=4.5e-08	W=1.2e-07
+ AD=2.75e-14	AS=2.75e-14	PD=6.8e-07	PS=6.8e-07
MI0<0>/I1<6>/NM3	I0<0>/I1<6>/QB#6	I0<0>/I1<6>/Q#3	VSS#35
+ VSS#4	nmos1v	L=4.5e-08	W=2.3e-07
+ AD=3.52e-14	AS=3.52e-14	PD=7.9e-07	PS=7.9e-07
MI0<0>/I1<5>/NM0	I0<0>/I1<5>/Q#6	WL#22	BL<6>#1	VSS#4
+ nmos1v	L=4.5e-08	W=1.2e-07
+ AD=2.75e-14	AS=2.75e-14	PD=6.8e-07	PS=6.8e-07
MI0<0>/I1<5>/NM2	I0<0>/I1<5>/Q#6	I0<0>/I1<5>/QB#2	VSS#41
+ VSS#4	nmos1v	L=4.5e-08	W=2.3e-07
+ AD=3.52e-14	AS=3.52e-14	PD=7.9e-07	PS=7.9e-07
MI0<0>/I1<5>/NM1	BLB<6>#3	WL#28	I0<0>/I1<5>/QB#4	VSS#4
+ nmos1v	L=4.5e-08	W=1.2e-07
+ AD=2.75e-14	AS=2.75e-14	PD=6.8e-07	PS=6.8e-07
MI0<0>/I1<5>/NM3	I0<0>/I1<5>/QB#4	I0<0>/I1<5>/Q	VSS#48	VSS#4
+ nmos1v	L=4.5e-08	W=2.3e-07
+ AD=3.52e-14	AS=3.52e-14	PD=7.9e-07	PS=7.9e-07
MI0<0>/I1<4>/NM0	I0<0>/I1<4>/Q#4	WL#16	BL<3>#1	VSS#4
+ nmos1v	L=4.5e-08	W=1.2e-07
+ AD=2.75e-14	AS=2.75e-14	PD=6.8e-07	PS=6.8e-07
MI0<0>/I1<4>/NM2	I0<0>/I1<4>/Q#4	I0<0>/I1<4>/QB	VSS#30	VSS#4
+ nmos1v	L=4.5e-08	W=2.3e-07
+ AD=3.52e-14	AS=3.52e-14	PD=7.9e-07	PS=7.9e-07
MI0<0>/I1<4>/NM1	BLB<3>#1	WL#10	I0<0>/I1<4>/QB#6	VSS#4
+ nmos1v	L=4.5e-08	W=1.2e-07
+ AD=2.75e-14	AS=2.75e-14	PD=6.8e-07	PS=6.8e-07
MI0<0>/I1<4>/NM3	I0<0>/I1<4>/QB#6	I0<0>/I1<4>/Q#3	VSS#23
+ VSS#4	nmos1v	L=4.5e-08	W=2.3e-07
+ AD=3.52e-14	AS=3.52e-14	PD=7.9e-07	PS=7.9e-07
MI0<0>/I1<3>/NM0	I0<0>/I1<3>/Q#6	WL#14	BL<4>#1	VSS#4
+ nmos1v	L=4.5e-08	W=1.2e-07
+ AD=2.75e-14	AS=2.75e-14	PD=6.8e-07	PS=6.8e-07
MI0<0>/I1<3>/NM2	I0<0>/I1<3>/Q#6	I0<0>/I1<3>/QB#2	VSS#29
+ VSS#4	nmos1v	L=4.5e-08	W=2.3e-07
+ AD=3.52e-14	AS=3.52e-14	PD=7.9e-07	PS=7.9e-07
MI0<0>/I1<3>/NM1	BLB<4>#3	WL#20	I0<0>/I1<3>/QB#4	VSS#4
+ nmos1v	L=4.5e-08	W=1.2e-07
+ AD=2.75e-14	AS=2.75e-14	PD=6.8e-07	PS=6.8e-07
MI0<0>/I1<3>/NM3	I0<0>/I1<3>/QB#4	I0<0>/I1<3>/Q	VSS#36	VSS#4
+ nmos1v	L=4.5e-08	W=2.3e-07
+ AD=3.52e-14	AS=3.52e-14	PD=7.9e-07	PS=7.9e-07
MI0<0>/I1<2>/NM0	I0<0>/I1<2>/Q#4	WL#8	BL<1>#1	VSS#4
+ nmos1v	L=4.5e-08	W=1.2e-07
+ AD=2.75e-14	AS=2.75e-14	PD=6.8e-07	PS=6.8e-07
MI0<0>/I1<2>/NM2	I0<0>/I1<2>/Q#4	I0<0>/I1<2>/QB	VSS#18	VSS#4
+ nmos1v	L=4.5e-08	W=2.3e-07
+ AD=3.52e-14	AS=3.52e-14	PD=7.9e-07	PS=7.9e-07
MI0<0>/I1<2>/NM1	BLB<1>#1	WL#3	I0<0>/I1<2>/QB#6	VSS#4
+ nmos1v	L=4.5e-08	W=1.2e-07
+ AD=2.75e-14	AS=2.75e-14	PD=6.8e-07	PS=6.8e-07
MI0<0>/I1<2>/NM3	I0<0>/I1<2>/QB#6	I0<0>/I1<2>/Q#3	VSS#11
+ VSS#4	nmos1v	L=4.5e-08	W=2.3e-07
+ AD=3.52e-14	AS=3.52e-14	PD=7.9e-07	PS=7.9e-07
MI0<0>/I1<1>/NM0	I0<0>/I1<1>/Q#6	WL#6	BL<2>#1	VSS#4
+ nmos1v	L=4.5e-08	W=1.2e-07
+ AD=2.75e-14	AS=2.75e-14	PD=6.8e-07	PS=6.8e-07
MI0<0>/I1<1>/NM2	I0<0>/I1<1>/Q#6	I0<0>/I1<1>/QB#2	VSS#17
+ VSS#4	nmos1v	L=4.5e-08	W=2.3e-07
+ AD=3.52e-14	AS=3.52e-14	PD=7.9e-07	PS=7.9e-07
MI0<0>/I1<1>/NM1	BLB<2>#3	WL#12	I0<0>/I1<1>/QB#4	VSS#4
+ nmos1v	L=4.5e-08	W=1.2e-07
+ AD=2.75e-14	AS=2.75e-14	PD=6.8e-07	PS=6.8e-07
MI0<0>/I1<1>/NM3	I0<0>/I1<1>/QB#4	I0<0>/I1<1>/Q	VSS#24	VSS#4
+ nmos1v	L=4.5e-08	W=2.3e-07
+ AD=3.52e-14	AS=3.52e-14	PD=7.9e-07	PS=7.9e-07
MI0<0>/I1<0>/NM0	I0<0>/I1<0>/Q#6	WL#1	BL<0>#1	VSS#4
+ nmos1v	L=4.5e-08	W=1.2e-07
+ AD=2.75e-14	AS=2.75e-14	PD=6.8e-07	PS=6.8e-07
MI0<0>/I1<0>/NM2	I0<0>/I1<0>/Q#6	I0<0>/I1<0>/QB#2	VSS#6
+ VSS#4	nmos1v	L=4.5e-08	W=2.3e-07
+ AD=3.52e-14	AS=3.52e-14	PD=7.9e-07	PS=7.9e-07
MI0<0>/I1<0>/NM1	BLB<0>#3	WL#5	I0<0>/I1<0>/QB#4	VSS#4
+ nmos1v	L=4.5e-08	W=1.2e-07
+ AD=2.75e-14	AS=2.75e-14	PD=6.8e-07	PS=6.8e-07
MI0<0>/I1<0>/NM3	I0<0>/I1<0>/QB#4	I0<0>/I1<0>/Q	VSS#12	VSS#4
+ nmos1v	L=4.5e-08	W=2.3e-07
+ AD=3.52e-14	AS=3.52e-14	PD=7.9e-07	PS=7.9e-07
MI0<7>/I1<7>/PM0	I0<7>/I1<7>/Q#5	I0<7>/I1<7>/QB#2	VDD#566
+ VDD#565	pmos1v	L=4.5e-08	W=1.2e-07
+ AD=1.68e-14	AS=1.68e-14	PD=5.2e-07	PS=5.2e-07
MI0<7>/I1<7>/PM1	I0<7>/I1<7>/QB#4	I0<7>/I1<7>/Q#2	VDD#563
+ VDD#565	pmos1v	L=4.5e-08	W=1.2e-07
+ AD=1.68e-14	AS=1.68e-14	PD=5.2e-07	PS=5.2e-07
MI0<7>/I1<6>/PM0	I0<7>/I1<6>/Q#5	I0<7>/I1<6>/QB#2	VDD#554
+ VDD#553	pmos1v	L=4.5e-08	W=1.2e-07
+ AD=1.68e-14	AS=1.68e-14	PD=5.2e-07	PS=5.2e-07
MI0<7>/I1<6>/PM1	I0<7>/I1<6>/QB#4	I0<7>/I1<6>/Q#2	VDD#551
+ VDD#553	pmos1v	L=4.5e-08	W=1.2e-07
+ AD=1.68e-14	AS=1.68e-14	PD=5.2e-07	PS=5.2e-07
MI0<7>/I1<5>/PM0	I0<7>/I1<5>/Q#4	I0<7>/I1<5>/QB	VDD#557
+ VDD#559	pmos1v	L=4.5e-08	W=1.2e-07
+ AD=1.68e-14	AS=1.68e-14	PD=5.2e-07	PS=5.2e-07
MI0<7>/I1<5>/PM1	I0<7>/I1<5>/QB#5	I0<7>/I1<5>/Q#2	VDD#560
+ VDD#559	pmos1v	L=4.5e-08	W=1.2e-07
+ AD=1.68e-14	AS=1.68e-14	PD=5.2e-07	PS=5.2e-07
MI0<7>/I1<4>/PM0	I0<7>/I1<4>/Q#5	I0<7>/I1<4>/QB#2	VDD#536
+ VDD#535	pmos1v	L=4.5e-08	W=1.2e-07
+ AD=1.68e-14	AS=1.68e-14	PD=5.2e-07	PS=5.2e-07
MI0<7>/I1<4>/PM1	I0<7>/I1<4>/QB#4	I0<7>/I1<4>/Q#2	VDD#533
+ VDD#535	pmos1v	L=4.5e-08	W=1.2e-07
+ AD=1.68e-14	AS=1.68e-14	PD=5.2e-07	PS=5.2e-07
MI0<7>/I1<3>/PM0	I0<7>/I1<3>/Q#4	I0<7>/I1<3>/QB	VDD#542
+ VDD#544	pmos1v	L=4.5e-08	W=1.2e-07
+ AD=1.68e-14	AS=1.68e-14	PD=5.2e-07	PS=5.2e-07
MI0<7>/I1<3>/PM1	I0<7>/I1<3>/QB#5	I0<7>/I1<3>/Q#2	VDD#545
+ VDD#544	pmos1v	L=4.5e-08	W=1.2e-07
+ AD=1.68e-14	AS=1.68e-14	PD=5.2e-07	PS=5.2e-07
MI0<7>/I1<2>/PM0	I0<7>/I1<2>/Q#5	I0<7>/I1<2>/QB#2	VDD#518
+ VDD#517	pmos1v	L=4.5e-08	W=1.2e-07
+ AD=1.68e-14	AS=1.68e-14	PD=5.2e-07	PS=5.2e-07
MI0<7>/I1<2>/PM1	I0<7>/I1<2>/QB#4	I0<7>/I1<2>/Q#2	VDD#515
+ VDD#517	pmos1v	L=4.5e-08	W=1.2e-07
+ AD=1.68e-14	AS=1.68e-14	PD=5.2e-07	PS=5.2e-07
MI0<7>/I1<1>/PM0	I0<7>/I1<1>/Q#4	I0<7>/I1<1>/QB	VDD#524
+ VDD#526	pmos1v	L=4.5e-08	W=1.2e-07
+ AD=1.68e-14	AS=1.68e-14	PD=5.2e-07	PS=5.2e-07
MI0<7>/I1<1>/PM1	I0<7>/I1<1>/QB#5	I0<7>/I1<1>/Q#2	VDD#527
+ VDD#526	pmos1v	L=4.5e-08	W=1.2e-07
+ AD=1.68e-14	AS=1.68e-14	PD=5.2e-07	PS=5.2e-07
MI0<7>/I1<0>/PM0	I0<7>/I1<0>/Q#4	I0<7>/I1<0>/QB	VDD#506
+ VDD#508	pmos1v	L=4.5e-08	W=1.2e-07
+ AD=1.68e-14	AS=1.68e-14	PD=5.2e-07	PS=5.2e-07
MI0<7>/I1<0>/PM1	I0<7>/I1<0>/QB#5	I0<7>/I1<0>/Q#2	VDD#509
+ VDD#508	pmos1v	L=4.5e-08	W=1.2e-07
+ AD=1.68e-14	AS=1.68e-14	PD=5.2e-07	PS=5.2e-07
MI0<6>/I1<7>/PM0	I0<6>/I1<7>/Q#5	I0<6>/I1<7>/QB#2	VDD#500
+ VDD#499	pmos1v	L=4.5e-08	W=1.2e-07
+ AD=1.68e-14	AS=1.68e-14	PD=5.2e-07	PS=5.2e-07
MI0<6>/I1<7>/PM1	I0<6>/I1<7>/QB#4	I0<6>/I1<7>/Q#2	VDD#497
+ VDD#499	pmos1v	L=4.5e-08	W=1.2e-07
+ AD=1.68e-14	AS=1.68e-14	PD=5.2e-07	PS=5.2e-07
MI0<6>/I1<6>/PM0	I0<6>/I1<6>/Q#5	I0<6>/I1<6>/QB#2	VDD#482
+ VDD#481	pmos1v	L=4.5e-08	W=1.2e-07
+ AD=1.68e-14	AS=1.68e-14	PD=5.2e-07	PS=5.2e-07
MI0<6>/I1<6>/PM1	I0<6>/I1<6>/QB#4	I0<6>/I1<6>/Q#2	VDD#479
+ VDD#481	pmos1v	L=4.5e-08	W=1.2e-07
+ AD=1.68e-14	AS=1.68e-14	PD=5.2e-07	PS=5.2e-07
MI0<6>/I1<5>/PM0	I0<6>/I1<5>/Q#4	I0<6>/I1<5>/QB	VDD#488
+ VDD#490	pmos1v	L=4.5e-08	W=1.2e-07
+ AD=1.68e-14	AS=1.68e-14	PD=5.2e-07	PS=5.2e-07
MI0<6>/I1<5>/PM1	I0<6>/I1<5>/QB#5	I0<6>/I1<5>/Q#2	VDD#491
+ VDD#490	pmos1v	L=4.5e-08	W=1.2e-07
+ AD=1.68e-14	AS=1.68e-14	PD=5.2e-07	PS=5.2e-07
MI0<6>/I1<4>/PM0	I0<6>/I1<4>/Q#5	I0<6>/I1<4>/QB#2	VDD#464
+ VDD#463	pmos1v	L=4.5e-08	W=1.2e-07
+ AD=1.68e-14	AS=1.68e-14	PD=5.2e-07	PS=5.2e-07
MI0<6>/I1<4>/PM1	I0<6>/I1<4>/QB#4	I0<6>/I1<4>/Q#2	VDD#461
+ VDD#463	pmos1v	L=4.5e-08	W=1.2e-07
+ AD=1.68e-14	AS=1.68e-14	PD=5.2e-07	PS=5.2e-07
MI0<6>/I1<3>/PM0	I0<6>/I1<3>/Q#4	I0<6>/I1<3>/QB	VDD#470
+ VDD#472	pmos1v	L=4.5e-08	W=1.2e-07
+ AD=1.68e-14	AS=1.68e-14	PD=5.2e-07	PS=5.2e-07
MI0<6>/I1<3>/PM1	I0<6>/I1<3>/QB#5	I0<6>/I1<3>/Q#2	VDD#473
+ VDD#472	pmos1v	L=4.5e-08	W=1.2e-07
+ AD=1.68e-14	AS=1.68e-14	PD=5.2e-07	PS=5.2e-07
MI0<6>/I1<2>/PM0	I0<6>/I1<2>/Q#5	I0<6>/I1<2>/QB#2	VDD#446
+ VDD#445	pmos1v	L=4.5e-08	W=1.2e-07
+ AD=1.68e-14	AS=1.68e-14	PD=5.2e-07	PS=5.2e-07
MI0<6>/I1<2>/PM1	I0<6>/I1<2>/QB#4	I0<6>/I1<2>/Q#2	VDD#443
+ VDD#445	pmos1v	L=4.5e-08	W=1.2e-07
+ AD=1.68e-14	AS=1.68e-14	PD=5.2e-07	PS=5.2e-07
MI0<6>/I1<1>/PM0	I0<6>/I1<1>/Q#4	I0<6>/I1<1>/QB	VDD#452
+ VDD#454	pmos1v	L=4.5e-08	W=1.2e-07
+ AD=1.68e-14	AS=1.68e-14	PD=5.2e-07	PS=5.2e-07
MI0<6>/I1<1>/PM1	I0<6>/I1<1>/QB#5	I0<6>/I1<1>/Q#2	VDD#455
+ VDD#454	pmos1v	L=4.5e-08	W=1.2e-07
+ AD=1.68e-14	AS=1.68e-14	PD=5.2e-07	PS=5.2e-07
MI0<6>/I1<0>/PM0	I0<6>/I1<0>/Q#4	I0<6>/I1<0>/QB	VDD#434
+ VDD#436	pmos1v	L=4.5e-08	W=1.2e-07
+ AD=1.68e-14	AS=1.68e-14	PD=5.2e-07	PS=5.2e-07
MI0<6>/I1<0>/PM1	I0<6>/I1<0>/QB#5	I0<6>/I1<0>/Q#2	VDD#437
+ VDD#436	pmos1v	L=4.5e-08	W=1.2e-07
+ AD=1.68e-14	AS=1.68e-14	PD=5.2e-07	PS=5.2e-07
MI0<5>/I1<7>/PM0	I0<5>/I1<7>/Q#5	I0<5>/I1<7>/QB#2	VDD#428
+ VDD#427	pmos1v	L=4.5e-08	W=1.2e-07
+ AD=1.68e-14	AS=1.68e-14	PD=5.2e-07	PS=5.2e-07
MI0<5>/I1<7>/PM1	I0<5>/I1<7>/QB#4	I0<5>/I1<7>/Q#2	VDD#425
+ VDD#427	pmos1v	L=4.5e-08	W=1.2e-07
+ AD=1.68e-14	AS=1.68e-14	PD=5.2e-07	PS=5.2e-07
MI0<5>/I1<6>/PM0	I0<5>/I1<6>/Q#5	I0<5>/I1<6>/QB#2	VDD#410
+ VDD#409	pmos1v	L=4.5e-08	W=1.2e-07
+ AD=1.68e-14	AS=1.68e-14	PD=5.2e-07	PS=5.2e-07
MI0<5>/I1<6>/PM1	I0<5>/I1<6>/QB#4	I0<5>/I1<6>/Q#2	VDD#407
+ VDD#409	pmos1v	L=4.5e-08	W=1.2e-07
+ AD=1.68e-14	AS=1.68e-14	PD=5.2e-07	PS=5.2e-07
MI0<5>/I1<5>/PM0	I0<5>/I1<5>/Q#4	I0<5>/I1<5>/QB	VDD#416
+ VDD#418	pmos1v	L=4.5e-08	W=1.2e-07
+ AD=1.68e-14	AS=1.68e-14	PD=5.2e-07	PS=5.2e-07
MI0<5>/I1<5>/PM1	I0<5>/I1<5>/QB#5	I0<5>/I1<5>/Q#2	VDD#419
+ VDD#418	pmos1v	L=4.5e-08	W=1.2e-07
+ AD=1.68e-14	AS=1.68e-14	PD=5.2e-07	PS=5.2e-07
MI0<5>/I1<4>/PM0	I0<5>/I1<4>/Q#5	I0<5>/I1<4>/QB#2	VDD#392
+ VDD#391	pmos1v	L=4.5e-08	W=1.2e-07
+ AD=1.68e-14	AS=1.68e-14	PD=5.2e-07	PS=5.2e-07
MI0<5>/I1<4>/PM1	I0<5>/I1<4>/QB#4	I0<5>/I1<4>/Q#2	VDD#389
+ VDD#391	pmos1v	L=4.5e-08	W=1.2e-07
+ AD=1.68e-14	AS=1.68e-14	PD=5.2e-07	PS=5.2e-07
MI0<5>/I1<3>/PM0	I0<5>/I1<3>/Q#4	I0<5>/I1<3>/QB	VDD#398
+ VDD#400	pmos1v	L=4.5e-08	W=1.2e-07
+ AD=1.68e-14	AS=1.68e-14	PD=5.2e-07	PS=5.2e-07
MI0<5>/I1<3>/PM1	I0<5>/I1<3>/QB#5	I0<5>/I1<3>/Q#2	VDD#401
+ VDD#400	pmos1v	L=4.5e-08	W=1.2e-07
+ AD=1.68e-14	AS=1.68e-14	PD=5.2e-07	PS=5.2e-07
MI0<5>/I1<2>/PM0	I0<5>/I1<2>/Q#5	I0<5>/I1<2>/QB#2	VDD#374
+ VDD#373	pmos1v	L=4.5e-08	W=1.2e-07
+ AD=1.68e-14	AS=1.68e-14	PD=5.2e-07	PS=5.2e-07
MI0<5>/I1<2>/PM1	I0<5>/I1<2>/QB#4	I0<5>/I1<2>/Q#2	VDD#371
+ VDD#373	pmos1v	L=4.5e-08	W=1.2e-07
+ AD=1.68e-14	AS=1.68e-14	PD=5.2e-07	PS=5.2e-07
MI0<5>/I1<1>/PM0	I0<5>/I1<1>/Q#4	I0<5>/I1<1>/QB	VDD#380
+ VDD#382	pmos1v	L=4.5e-08	W=1.2e-07
+ AD=1.68e-14	AS=1.68e-14	PD=5.2e-07	PS=5.2e-07
MI0<5>/I1<1>/PM1	I0<5>/I1<1>/QB#5	I0<5>/I1<1>/Q#2	VDD#383
+ VDD#382	pmos1v	L=4.5e-08	W=1.2e-07
+ AD=1.68e-14	AS=1.68e-14	PD=5.2e-07	PS=5.2e-07
MI0<5>/I1<0>/PM0	I0<5>/I1<0>/Q#4	I0<5>/I1<0>/QB	VDD#362
+ VDD#364	pmos1v	L=4.5e-08	W=1.2e-07
+ AD=1.68e-14	AS=1.68e-14	PD=5.2e-07	PS=5.2e-07
MI0<5>/I1<0>/PM1	I0<5>/I1<0>/QB#5	I0<5>/I1<0>/Q#2	VDD#365
+ VDD#364	pmos1v	L=4.5e-08	W=1.2e-07
+ AD=1.68e-14	AS=1.68e-14	PD=5.2e-07	PS=5.2e-07
MI0<4>/I1<7>/PM0	I0<4>/I1<7>/Q#5	I0<4>/I1<7>/QB#2	VDD#356
+ VDD#355	pmos1v	L=4.5e-08	W=1.2e-07
+ AD=1.68e-14	AS=1.68e-14	PD=5.2e-07	PS=5.2e-07
MI0<4>/I1<7>/PM1	I0<4>/I1<7>/QB#4	I0<4>/I1<7>/Q#2	VDD#353
+ VDD#355	pmos1v	L=4.5e-08	W=1.2e-07
+ AD=1.68e-14	AS=1.68e-14	PD=5.2e-07	PS=5.2e-07
MI0<4>/I1<6>/PM0	I0<4>/I1<6>/Q#5	I0<4>/I1<6>/QB#2	VDD#338
+ VDD#337	pmos1v	L=4.5e-08	W=1.2e-07
+ AD=1.68e-14	AS=1.68e-14	PD=5.2e-07	PS=5.2e-07
MI0<4>/I1<6>/PM1	I0<4>/I1<6>/QB#4	I0<4>/I1<6>/Q#2	VDD#335
+ VDD#337	pmos1v	L=4.5e-08	W=1.2e-07
+ AD=1.68e-14	AS=1.68e-14	PD=5.2e-07	PS=5.2e-07
MI0<4>/I1<5>/PM0	I0<4>/I1<5>/Q#4	I0<4>/I1<5>/QB	VDD#344
+ VDD#346	pmos1v	L=4.5e-08	W=1.2e-07
+ AD=1.68e-14	AS=1.68e-14	PD=5.2e-07	PS=5.2e-07
MI0<4>/I1<5>/PM1	I0<4>/I1<5>/QB#5	I0<4>/I1<5>/Q#2	VDD#347
+ VDD#346	pmos1v	L=4.5e-08	W=1.2e-07
+ AD=1.68e-14	AS=1.68e-14	PD=5.2e-07	PS=5.2e-07
MI0<4>/I1<4>/PM0	I0<4>/I1<4>/Q#5	I0<4>/I1<4>/QB#2	VDD#320
+ VDD#319	pmos1v	L=4.5e-08	W=1.2e-07
+ AD=1.68e-14	AS=1.68e-14	PD=5.2e-07	PS=5.2e-07
MI0<4>/I1<4>/PM1	I0<4>/I1<4>/QB#4	I0<4>/I1<4>/Q#2	VDD#317
+ VDD#319	pmos1v	L=4.5e-08	W=1.2e-07
+ AD=1.68e-14	AS=1.68e-14	PD=5.2e-07	PS=5.2e-07
MI0<4>/I1<3>/PM0	I0<4>/I1<3>/Q#4	I0<4>/I1<3>/QB	VDD#326
+ VDD#328	pmos1v	L=4.5e-08	W=1.2e-07
+ AD=1.68e-14	AS=1.68e-14	PD=5.2e-07	PS=5.2e-07
MI0<4>/I1<3>/PM1	I0<4>/I1<3>/QB#5	I0<4>/I1<3>/Q#2	VDD#329
+ VDD#328	pmos1v	L=4.5e-08	W=1.2e-07
+ AD=1.68e-14	AS=1.68e-14	PD=5.2e-07	PS=5.2e-07
MI0<4>/I1<2>/PM0	I0<4>/I1<2>/Q#5	I0<4>/I1<2>/QB#2	VDD#302
+ VDD#301	pmos1v	L=4.5e-08	W=1.2e-07
+ AD=1.68e-14	AS=1.68e-14	PD=5.2e-07	PS=5.2e-07
MI0<4>/I1<2>/PM1	I0<4>/I1<2>/QB#4	I0<4>/I1<2>/Q#2	VDD#299
+ VDD#301	pmos1v	L=4.5e-08	W=1.2e-07
+ AD=1.68e-14	AS=1.68e-14	PD=5.2e-07	PS=5.2e-07
MI0<4>/I1<1>/PM0	I0<4>/I1<1>/Q#4	I0<4>/I1<1>/QB	VDD#308
+ VDD#310	pmos1v	L=4.5e-08	W=1.2e-07
+ AD=1.68e-14	AS=1.68e-14	PD=5.2e-07	PS=5.2e-07
MI0<4>/I1<1>/PM1	I0<4>/I1<1>/QB#5	I0<4>/I1<1>/Q#2	VDD#311
+ VDD#310	pmos1v	L=4.5e-08	W=1.2e-07
+ AD=1.68e-14	AS=1.68e-14	PD=5.2e-07	PS=5.2e-07
MI0<4>/I1<0>/PM0	I0<4>/I1<0>/Q#4	I0<4>/I1<0>/QB	VDD#290
+ VDD#292	pmos1v	L=4.5e-08	W=1.2e-07
+ AD=1.68e-14	AS=1.68e-14	PD=5.2e-07	PS=5.2e-07
MI0<4>/I1<0>/PM1	I0<4>/I1<0>/QB#5	I0<4>/I1<0>/Q#2	VDD#293
+ VDD#292	pmos1v	L=4.5e-08	W=1.2e-07
+ AD=1.68e-14	AS=1.68e-14	PD=5.2e-07	PS=5.2e-07
MI0<3>/I1<7>/PM0	I0<3>/I1<7>/Q#5	I0<3>/I1<7>/QB#2	VDD#284
+ VDD#283	pmos1v	L=4.5e-08	W=1.2e-07
+ AD=1.68e-14	AS=1.68e-14	PD=5.2e-07	PS=5.2e-07
MI0<3>/I1<7>/PM1	I0<3>/I1<7>/QB#4	I0<3>/I1<7>/Q#2	VDD#281
+ VDD#283	pmos1v	L=4.5e-08	W=1.2e-07
+ AD=1.68e-14	AS=1.68e-14	PD=5.2e-07	PS=5.2e-07
MI0<3>/I1<6>/PM0	I0<3>/I1<6>/Q#5	I0<3>/I1<6>/QB#2	VDD#266
+ VDD#265	pmos1v	L=4.5e-08	W=1.2e-07
+ AD=1.68e-14	AS=1.68e-14	PD=5.2e-07	PS=5.2e-07
MI0<3>/I1<6>/PM1	I0<3>/I1<6>/QB#4	I0<3>/I1<6>/Q#2	VDD#263
+ VDD#265	pmos1v	L=4.5e-08	W=1.2e-07
+ AD=1.68e-14	AS=1.68e-14	PD=5.2e-07	PS=5.2e-07
MI0<3>/I1<5>/PM0	I0<3>/I1<5>/Q#4	I0<3>/I1<5>/QB	VDD#272
+ VDD#274	pmos1v	L=4.5e-08	W=1.2e-07
+ AD=1.68e-14	AS=1.68e-14	PD=5.2e-07	PS=5.2e-07
MI0<3>/I1<5>/PM1	I0<3>/I1<5>/QB#5	I0<3>/I1<5>/Q#2	VDD#275
+ VDD#274	pmos1v	L=4.5e-08	W=1.2e-07
+ AD=1.68e-14	AS=1.68e-14	PD=5.2e-07	PS=5.2e-07
MI0<3>/I1<4>/PM0	I0<3>/I1<4>/Q#5	I0<3>/I1<4>/QB#2	VDD#248
+ VDD#247	pmos1v	L=4.5e-08	W=1.2e-07
+ AD=1.68e-14	AS=1.68e-14	PD=5.2e-07	PS=5.2e-07
MI0<3>/I1<4>/PM1	I0<3>/I1<4>/QB#4	I0<3>/I1<4>/Q#2	VDD#245
+ VDD#247	pmos1v	L=4.5e-08	W=1.2e-07
+ AD=1.68e-14	AS=1.68e-14	PD=5.2e-07	PS=5.2e-07
MI0<3>/I1<3>/PM0	I0<3>/I1<3>/Q#4	I0<3>/I1<3>/QB	VDD#254
+ VDD#256	pmos1v	L=4.5e-08	W=1.2e-07
+ AD=1.68e-14	AS=1.68e-14	PD=5.2e-07	PS=5.2e-07
MI0<3>/I1<3>/PM1	I0<3>/I1<3>/QB#5	I0<3>/I1<3>/Q#2	VDD#257
+ VDD#256	pmos1v	L=4.5e-08	W=1.2e-07
+ AD=1.68e-14	AS=1.68e-14	PD=5.2e-07	PS=5.2e-07
MI0<3>/I1<2>/PM0	I0<3>/I1<2>/Q#5	I0<3>/I1<2>/QB#2	VDD#230
+ VDD#229	pmos1v	L=4.5e-08	W=1.2e-07
+ AD=1.68e-14	AS=1.68e-14	PD=5.2e-07	PS=5.2e-07
MI0<3>/I1<2>/PM1	I0<3>/I1<2>/QB#4	I0<3>/I1<2>/Q#2	VDD#227
+ VDD#229	pmos1v	L=4.5e-08	W=1.2e-07
+ AD=1.68e-14	AS=1.68e-14	PD=5.2e-07	PS=5.2e-07
MI0<3>/I1<1>/PM0	I0<3>/I1<1>/Q#4	I0<3>/I1<1>/QB	VDD#236
+ VDD#238	pmos1v	L=4.5e-08	W=1.2e-07
+ AD=1.68e-14	AS=1.68e-14	PD=5.2e-07	PS=5.2e-07
MI0<3>/I1<1>/PM1	I0<3>/I1<1>/QB#5	I0<3>/I1<1>/Q#2	VDD#239
+ VDD#238	pmos1v	L=4.5e-08	W=1.2e-07
+ AD=1.68e-14	AS=1.68e-14	PD=5.2e-07	PS=5.2e-07
MI0<3>/I1<0>/PM0	I0<3>/I1<0>/Q#4	I0<3>/I1<0>/QB	VDD#218
+ VDD#220	pmos1v	L=4.5e-08	W=1.2e-07
+ AD=1.68e-14	AS=1.68e-14	PD=5.2e-07	PS=5.2e-07
MI0<3>/I1<0>/PM1	I0<3>/I1<0>/QB#5	I0<3>/I1<0>/Q#2	VDD#221
+ VDD#220	pmos1v	L=4.5e-08	W=1.2e-07
+ AD=1.68e-14	AS=1.68e-14	PD=5.2e-07	PS=5.2e-07
MI0<2>/I1<7>/PM0	I0<2>/I1<7>/Q#5	I0<2>/I1<7>/QB#2	VDD#212
+ VDD#211	pmos1v	L=4.5e-08	W=1.2e-07
+ AD=1.68e-14	AS=1.68e-14	PD=5.2e-07	PS=5.2e-07
MI0<2>/I1<7>/PM1	I0<2>/I1<7>/QB#4	I0<2>/I1<7>/Q#2	VDD#209
+ VDD#211	pmos1v	L=4.5e-08	W=1.2e-07
+ AD=1.68e-14	AS=1.68e-14	PD=5.2e-07	PS=5.2e-07
MI0<2>/I1<6>/PM0	I0<2>/I1<6>/Q#5	I0<2>/I1<6>/QB#2	VDD#194
+ VDD#193	pmos1v	L=4.5e-08	W=1.2e-07
+ AD=1.68e-14	AS=1.68e-14	PD=5.2e-07	PS=5.2e-07
MI0<2>/I1<6>/PM1	I0<2>/I1<6>/QB#4	I0<2>/I1<6>/Q#2	VDD#191
+ VDD#193	pmos1v	L=4.5e-08	W=1.2e-07
+ AD=1.68e-14	AS=1.68e-14	PD=5.2e-07	PS=5.2e-07
MI0<2>/I1<5>/PM0	I0<2>/I1<5>/Q#4	I0<2>/I1<5>/QB	VDD#200
+ VDD#202	pmos1v	L=4.5e-08	W=1.2e-07
+ AD=1.68e-14	AS=1.68e-14	PD=5.2e-07	PS=5.2e-07
MI0<2>/I1<5>/PM1	I0<2>/I1<5>/QB#5	I0<2>/I1<5>/Q#2	VDD#203
+ VDD#202	pmos1v	L=4.5e-08	W=1.2e-07
+ AD=1.68e-14	AS=1.68e-14	PD=5.2e-07	PS=5.2e-07
MI0<2>/I1<4>/PM0	I0<2>/I1<4>/Q#5	I0<2>/I1<4>/QB#2	VDD#176
+ VDD#175	pmos1v	L=4.5e-08	W=1.2e-07
+ AD=1.68e-14	AS=1.68e-14	PD=5.2e-07	PS=5.2e-07
MI0<2>/I1<4>/PM1	I0<2>/I1<4>/QB#4	I0<2>/I1<4>/Q#2	VDD#173
+ VDD#175	pmos1v	L=4.5e-08	W=1.2e-07
+ AD=1.68e-14	AS=1.68e-14	PD=5.2e-07	PS=5.2e-07
MI0<2>/I1<3>/PM0	I0<2>/I1<3>/Q#4	I0<2>/I1<3>/QB	VDD#182
+ VDD#184	pmos1v	L=4.5e-08	W=1.2e-07
+ AD=1.68e-14	AS=1.68e-14	PD=5.2e-07	PS=5.2e-07
MI0<2>/I1<3>/PM1	I0<2>/I1<3>/QB#5	I0<2>/I1<3>/Q#2	VDD#185
+ VDD#184	pmos1v	L=4.5e-08	W=1.2e-07
+ AD=1.68e-14	AS=1.68e-14	PD=5.2e-07	PS=5.2e-07
MI0<2>/I1<2>/PM0	I0<2>/I1<2>/Q#5	I0<2>/I1<2>/QB#2	VDD#158
+ VDD#157	pmos1v	L=4.5e-08	W=1.2e-07
+ AD=1.68e-14	AS=1.68e-14	PD=5.2e-07	PS=5.2e-07
MI0<2>/I1<2>/PM1	I0<2>/I1<2>/QB#4	I0<2>/I1<2>/Q#2	VDD#155
+ VDD#157	pmos1v	L=4.5e-08	W=1.2e-07
+ AD=1.68e-14	AS=1.68e-14	PD=5.2e-07	PS=5.2e-07
MI0<2>/I1<1>/PM0	I0<2>/I1<1>/Q#4	I0<2>/I1<1>/QB	VDD#164
+ VDD#166	pmos1v	L=4.5e-08	W=1.2e-07
+ AD=1.68e-14	AS=1.68e-14	PD=5.2e-07	PS=5.2e-07
MI0<2>/I1<1>/PM1	I0<2>/I1<1>/QB#5	I0<2>/I1<1>/Q#2	VDD#167
+ VDD#166	pmos1v	L=4.5e-08	W=1.2e-07
+ AD=1.68e-14	AS=1.68e-14	PD=5.2e-07	PS=5.2e-07
MI0<2>/I1<0>/PM0	I0<2>/I1<0>/Q#4	I0<2>/I1<0>/QB	VDD#146
+ VDD#148	pmos1v	L=4.5e-08	W=1.2e-07
+ AD=1.68e-14	AS=1.68e-14	PD=5.2e-07	PS=5.2e-07
MI0<2>/I1<0>/PM1	I0<2>/I1<0>/QB#5	I0<2>/I1<0>/Q#2	VDD#149
+ VDD#148	pmos1v	L=4.5e-08	W=1.2e-07
+ AD=1.68e-14	AS=1.68e-14	PD=5.2e-07	PS=5.2e-07
MI0<1>/I1<7>/PM0	I0<1>/I1<7>/Q#5	I0<1>/I1<7>/QB#2	VDD#140
+ VDD#139	pmos1v	L=4.5e-08	W=1.2e-07
+ AD=1.68e-14	AS=1.68e-14	PD=5.2e-07	PS=5.2e-07
MI0<1>/I1<7>/PM1	I0<1>/I1<7>/QB#4	I0<1>/I1<7>/Q#2	VDD#137
+ VDD#139	pmos1v	L=4.5e-08	W=1.2e-07
+ AD=1.68e-14	AS=1.68e-14	PD=5.2e-07	PS=5.2e-07
MI0<1>/I1<6>/PM0	I0<1>/I1<6>/Q#5	I0<1>/I1<6>/QB#2	VDD#122
+ VDD#121	pmos1v	L=4.5e-08	W=1.2e-07
+ AD=1.68e-14	AS=1.68e-14	PD=5.2e-07	PS=5.2e-07
MI0<1>/I1<6>/PM1	I0<1>/I1<6>/QB#4	I0<1>/I1<6>/Q#2	VDD#119
+ VDD#121	pmos1v	L=4.5e-08	W=1.2e-07
+ AD=1.68e-14	AS=1.68e-14	PD=5.2e-07	PS=5.2e-07
MI0<1>/I1<5>/PM0	I0<1>/I1<5>/Q#4	I0<1>/I1<5>/QB	VDD#128
+ VDD#130	pmos1v	L=4.5e-08	W=1.2e-07
+ AD=1.68e-14	AS=1.68e-14	PD=5.2e-07	PS=5.2e-07
MI0<1>/I1<5>/PM1	I0<1>/I1<5>/QB#5	I0<1>/I1<5>/Q#2	VDD#131
+ VDD#130	pmos1v	L=4.5e-08	W=1.2e-07
+ AD=1.68e-14	AS=1.68e-14	PD=5.2e-07	PS=5.2e-07
MI0<1>/I1<4>/PM0	I0<1>/I1<4>/Q#5	I0<1>/I1<4>/QB#2	VDD#104
+ VDD#103	pmos1v	L=4.5e-08	W=1.2e-07
+ AD=1.68e-14	AS=1.68e-14	PD=5.2e-07	PS=5.2e-07
MI0<1>/I1<4>/PM1	I0<1>/I1<4>/QB#4	I0<1>/I1<4>/Q#2	VDD#101
+ VDD#103	pmos1v	L=4.5e-08	W=1.2e-07
+ AD=1.68e-14	AS=1.68e-14	PD=5.2e-07	PS=5.2e-07
MI0<1>/I1<3>/PM0	I0<1>/I1<3>/Q#4	I0<1>/I1<3>/QB	VDD#110
+ VDD#112	pmos1v	L=4.5e-08	W=1.2e-07
+ AD=1.68e-14	AS=1.68e-14	PD=5.2e-07	PS=5.2e-07
MI0<1>/I1<3>/PM1	I0<1>/I1<3>/QB#5	I0<1>/I1<3>/Q#2	VDD#113
+ VDD#112	pmos1v	L=4.5e-08	W=1.2e-07
+ AD=1.68e-14	AS=1.68e-14	PD=5.2e-07	PS=5.2e-07
MI0<1>/I1<2>/PM0	I0<1>/I1<2>/Q#5	I0<1>/I1<2>/QB#2	VDD#86
+ VDD#85	pmos1v	L=4.5e-08	W=1.2e-07
+ AD=1.68e-14	AS=1.68e-14	PD=5.2e-07	PS=5.2e-07
MI0<1>/I1<2>/PM1	I0<1>/I1<2>/QB#4	I0<1>/I1<2>/Q#2	VDD#83
+ VDD#85	pmos1v	L=4.5e-08	W=1.2e-07
+ AD=1.68e-14	AS=1.68e-14	PD=5.2e-07	PS=5.2e-07
MI0<1>/I1<1>/PM0	I0<1>/I1<1>/Q#4	I0<1>/I1<1>/QB	VDD#92	VDD#94
+ pmos1v	L=4.5e-08	W=1.2e-07
+ AD=1.68e-14	AS=1.68e-14	PD=5.2e-07	PS=5.2e-07
MI0<1>/I1<1>/PM1	I0<1>/I1<1>/QB#5	I0<1>/I1<1>/Q#2	VDD#95
+ VDD#94	pmos1v	L=4.5e-08	W=1.2e-07
+ AD=1.68e-14	AS=1.68e-14	PD=5.2e-07	PS=5.2e-07
MI0<1>/I1<0>/PM0	I0<1>/I1<0>/Q#4	I0<1>/I1<0>/QB	VDD#74	VDD#76
+ pmos1v	L=4.5e-08	W=1.2e-07
+ AD=1.68e-14	AS=1.68e-14	PD=5.2e-07	PS=5.2e-07
MI0<1>/I1<0>/PM1	I0<1>/I1<0>/QB#5	I0<1>/I1<0>/Q#2	VDD#77
+ VDD#76	pmos1v	L=4.5e-08	W=1.2e-07
+ AD=1.68e-14	AS=1.68e-14	PD=5.2e-07	PS=5.2e-07
MI0<0>/I1<7>/PM0	I0<0>/I1<7>/Q#5	I0<0>/I1<7>/QB#2	VDD#68
+ VDD#67	pmos1v	L=4.5e-08	W=1.2e-07
+ AD=1.68e-14	AS=1.68e-14	PD=5.2e-07	PS=5.2e-07
MI0<0>/I1<7>/PM1	I0<0>/I1<7>/QB#4	I0<0>/I1<7>/Q#2	VDD#65
+ VDD#67	pmos1v	L=4.5e-08	W=1.2e-07
+ AD=1.68e-14	AS=1.68e-14	PD=5.2e-07	PS=5.2e-07
MI0<0>/I1<6>/PM0	I0<0>/I1<6>/Q#5	I0<0>/I1<6>/QB#2	VDD#50
+ VDD#49	pmos1v	L=4.5e-08	W=1.2e-07
+ AD=1.68e-14	AS=1.68e-14	PD=5.2e-07	PS=5.2e-07
MI0<0>/I1<6>/PM1	I0<0>/I1<6>/QB#4	I0<0>/I1<6>/Q#2	VDD#47
+ VDD#49	pmos1v	L=4.5e-08	W=1.2e-07
+ AD=1.68e-14	AS=1.68e-14	PD=5.2e-07	PS=5.2e-07
MI0<0>/I1<5>/PM0	I0<0>/I1<5>/Q#4	I0<0>/I1<5>/QB	VDD#56	VDD#58
+ pmos1v	L=4.5e-08	W=1.2e-07
+ AD=1.68e-14	AS=1.68e-14	PD=5.2e-07	PS=5.2e-07
MI0<0>/I1<5>/PM1	I0<0>/I1<5>/QB#5	I0<0>/I1<5>/Q#2	VDD#59
+ VDD#58	pmos1v	L=4.5e-08	W=1.2e-07
+ AD=1.68e-14	AS=1.68e-14	PD=5.2e-07	PS=5.2e-07
MI0<0>/I1<4>/PM0	I0<0>/I1<4>/Q#5	I0<0>/I1<4>/QB#2	VDD#32
+ VDD#31	pmos1v	L=4.5e-08	W=1.2e-07
+ AD=1.68e-14	AS=1.68e-14	PD=5.2e-07	PS=5.2e-07
MI0<0>/I1<4>/PM1	I0<0>/I1<4>/QB#4	I0<0>/I1<4>/Q#2	VDD#29
+ VDD#31	pmos1v	L=4.5e-08	W=1.2e-07
+ AD=1.68e-14	AS=1.68e-14	PD=5.2e-07	PS=5.2e-07
MI0<0>/I1<3>/PM0	I0<0>/I1<3>/Q#4	I0<0>/I1<3>/QB	VDD#38	VDD#40
+ pmos1v	L=4.5e-08	W=1.2e-07
+ AD=1.68e-14	AS=1.68e-14	PD=5.2e-07	PS=5.2e-07
MI0<0>/I1<3>/PM1	I0<0>/I1<3>/QB#5	I0<0>/I1<3>/Q#2	VDD#41
+ VDD#40	pmos1v	L=4.5e-08	W=1.2e-07
+ AD=1.68e-14	AS=1.68e-14	PD=5.2e-07	PS=5.2e-07
MI0<0>/I1<2>/PM0	I0<0>/I1<2>/Q#5	I0<0>/I1<2>/QB#2	VDD#14
+ VDD#13	pmos1v	L=4.5e-08	W=1.2e-07
+ AD=1.68e-14	AS=1.68e-14	PD=5.2e-07	PS=5.2e-07
MI0<0>/I1<2>/PM1	I0<0>/I1<2>/QB#4	I0<0>/I1<2>/Q#2	VDD#11
+ VDD#13	pmos1v	L=4.5e-08	W=1.2e-07
+ AD=1.68e-14	AS=1.68e-14	PD=5.2e-07	PS=5.2e-07
MI0<0>/I1<1>/PM0	I0<0>/I1<1>/Q#4	I0<0>/I1<1>/QB	VDD#20	VDD#22
+ pmos1v	L=4.5e-08	W=1.2e-07
+ AD=1.68e-14	AS=1.68e-14	PD=5.2e-07	PS=5.2e-07
MI0<0>/I1<1>/PM1	I0<0>/I1<1>/QB#5	I0<0>/I1<1>/Q#2	VDD#23
+ VDD#22	pmos1v	L=4.5e-08	W=1.2e-07
+ AD=1.68e-14	AS=1.68e-14	PD=5.2e-07	PS=5.2e-07
MI0<0>/I1<0>/PM0	I0<0>/I1<0>/Q#4	I0<0>/I1<0>/QB	VDD#2	VDD#4
+ pmos1v	L=4.5e-08	W=1.2e-07
+ AD=1.68e-14	AS=1.68e-14	PD=5.2e-07	PS=5.2e-07
MI0<0>/I1<0>/PM1	I0<0>/I1<0>/QB#5	I0<0>/I1<0>/Q#2	VDD#5
+ VDD#4	pmos1v	L=4.5e-08	W=1.2e-07
+ AD=1.68e-14	AS=1.68e-14	PD=5.2e-07	PS=5.2e-07
*
*
*       RESISTOR AND CAP/DIODE CARDS
*
Rl1	WL#1	WL#2	  104.7064	$poly_conn
Rl2	I0<0>/I1<0>/QB	I0<0>/I1<0>/QB#2	   56.4103	$poly_conn
Rl3	I0<0>/I1<0>/QB	I0<0>/I1<0>/QB#3	   90.3330	$poly_conn
Rl4	I0<0>/I1<0>/Q	I0<0>/I1<0>/Q#2	   56.4103	$poly_conn
Rl5	I0<0>/I1<0>/Q#2	I0<0>/I1<0>/Q#3	   90.3330
+ $poly_conn
Rl6	WL#3	WL#4	   59.7064	$poly_conn
Rl7	WL#4	WL#5	   59.7064	$poly_conn
Rl8	I0<0>/I1<2>/Q	I0<0>/I1<2>/Q#2	   90.3330	$poly_conn
Rl9	I0<0>/I1<2>/Q#2	I0<0>/I1<2>/Q#3	   56.4103
+ $poly_conn
Rl10	I0<0>/I1<2>/QB	I0<0>/I1<2>/QB#2	   56.4103	$poly_conn
Rl11	I0<0>/I1<2>/QB#2	I0<0>/I1<2>/QB#3	   90.3330
+ $poly_conn
Rl12	WL#6	WL#7	   59.7064	$poly_conn
Rl13	WL#7	WL#8	   59.7064	$poly_conn
Rl14	I0<0>/I1<1>/QB	I0<0>/I1<1>/QB#2	   56.4103	$poly_conn
Rl15	I0<0>/I1<1>/QB	I0<0>/I1<1>/QB#3	   90.3330	$poly_conn
Rl16	I0<0>/I1<1>/Q	I0<0>/I1<1>/Q#2	   56.4103	$poly_conn
Rl17	I0<0>/I1<1>/Q#2	I0<0>/I1<1>/Q#3	   90.3330
+ $poly_conn
Rl18	WL#10	WL#11	   59.7064	$poly_conn
Rl19	WL#11	WL#12	   59.7064	$poly_conn
Rl20	I0<0>/I1<4>/Q	I0<0>/I1<4>/Q#2	   90.3330	$poly_conn
Rl21	I0<0>/I1<4>/Q#2	I0<0>/I1<4>/Q#3	   56.4103
+ $poly_conn
Rl22	I0<0>/I1<4>/QB	I0<0>/I1<4>/QB#2	   56.4103	$poly_conn
Rl23	I0<0>/I1<4>/QB#2	I0<0>/I1<4>/QB#3	   90.3330
+ $poly_conn
Rl24	WL#14	WL#15	   59.7064	$poly_conn
Rl25	WL#15	WL#16	   59.7064	$poly_conn
Rl26	I0<0>/I1<3>/QB	I0<0>/I1<3>/QB#2	   56.4103	$poly_conn
Rl27	I0<0>/I1<3>/QB	I0<0>/I1<3>/QB#3	   90.3330	$poly_conn
Rl28	I0<0>/I1<3>/Q	I0<0>/I1<3>/Q#2	   56.4103	$poly_conn
Rl29	I0<0>/I1<3>/Q#2	I0<0>/I1<3>/Q#3	   90.3330
+ $poly_conn
Rl30	WL#18	WL#19	   59.7064	$poly_conn
Rl31	WL#19	WL#20	   59.7064	$poly_conn
Rl32	I0<0>/I1<6>/Q	I0<0>/I1<6>/Q#2	   90.3330	$poly_conn
Rl33	I0<0>/I1<6>/Q#2	I0<0>/I1<6>/Q#3	   56.4103
+ $poly_conn
Rl34	I0<0>/I1<6>/QB	I0<0>/I1<6>/QB#2	   56.4103	$poly_conn
Rl35	I0<0>/I1<6>/QB#2	I0<0>/I1<6>/QB#3	   90.3330
+ $poly_conn
Rl36	WL#22	WL#23	   59.7064	$poly_conn
Rl37	WL#23	WL#24	   59.7064	$poly_conn
Rl38	I0<0>/I1<5>/QB	I0<0>/I1<5>/QB#2	   56.4103	$poly_conn
Rl39	I0<0>/I1<5>/QB	I0<0>/I1<5>/QB#3	   90.3330	$poly_conn
Rl40	I0<0>/I1<5>/Q	I0<0>/I1<5>/Q#2	   56.4103	$poly_conn
Rl41	I0<0>/I1<5>/Q#2	I0<0>/I1<5>/Q#3	   90.3330
+ $poly_conn
Rl42	WL#26	WL#27	   59.7064	$poly_conn
Rl43	WL#27	WL#28	   59.7064	$poly_conn
Rl44	I0<0>/I1<7>/Q	I0<0>/I1<7>/Q#2	   90.3330	$poly_conn
Rl45	I0<0>/I1<7>/Q#2	I0<0>/I1<7>/Q#3	   56.4103
+ $poly_conn
Rl46	I0<0>/I1<7>/QB	I0<0>/I1<7>/QB#2	   56.4103	$poly_conn
Rl47	I0<0>/I1<7>/QB#2	I0<0>/I1<7>/QB#3	   90.3330
+ $poly_conn
Rl48	WL#30	WL#31	   59.7064	$poly_conn
Rl49	WL#31	WL#32	   59.7064	$poly_conn
Rl50	I0<1>/I1<0>/QB	I0<1>/I1<0>/QB#2	   56.4103	$poly_conn
Rl51	I0<1>/I1<0>/QB	I0<1>/I1<0>/QB#3	   90.3330	$poly_conn
Rl52	I0<1>/I1<0>/Q	I0<1>/I1<0>/Q#2	   56.4103	$poly_conn
Rl53	I0<1>/I1<0>/Q#2	I0<1>/I1<0>/Q#3	   90.3330
+ $poly_conn
Rl54	WL#34	WL#35	   59.7064	$poly_conn
Rl55	WL#35	WL#36	   59.7064	$poly_conn
Rl56	I0<1>/I1<2>/Q	I0<1>/I1<2>/Q#2	   90.3330	$poly_conn
Rl57	I0<1>/I1<2>/Q#2	I0<1>/I1<2>/Q#3	   56.4103
+ $poly_conn
Rl58	I0<1>/I1<2>/QB	I0<1>/I1<2>/QB#2	   56.4103	$poly_conn
Rl59	I0<1>/I1<2>/QB#2	I0<1>/I1<2>/QB#3	   90.3330
+ $poly_conn
Rl60	WL#38	WL#39	   59.7064	$poly_conn
Rl61	WL#39	WL#40	   59.7064	$poly_conn
Rl62	I0<1>/I1<1>/QB	I0<1>/I1<1>/QB#2	   56.4103	$poly_conn
Rl63	I0<1>/I1<1>/QB	I0<1>/I1<1>/QB#3	   90.3330	$poly_conn
Rl64	I0<1>/I1<1>/Q	I0<1>/I1<1>/Q#2	   56.4103	$poly_conn
Rl65	I0<1>/I1<1>/Q#2	I0<1>/I1<1>/Q#3	   90.3330
+ $poly_conn
Rl66	WL#42	WL#43	   59.7064	$poly_conn
Rl67	WL#43	WL#44	   59.7064	$poly_conn
Rl68	I0<1>/I1<4>/Q	I0<1>/I1<4>/Q#2	   90.3330	$poly_conn
Rl69	I0<1>/I1<4>/Q#2	I0<1>/I1<4>/Q#3	   56.4103
+ $poly_conn
Rl70	I0<1>/I1<4>/QB	I0<1>/I1<4>/QB#2	   56.4103	$poly_conn
Rl71	I0<1>/I1<4>/QB#2	I0<1>/I1<4>/QB#3	   90.3330
+ $poly_conn
Rl72	WL#46	WL#47	   59.7064	$poly_conn
Rl73	WL#47	WL#48	   59.7064	$poly_conn
Rl74	I0<1>/I1<3>/QB	I0<1>/I1<3>/QB#2	   56.4103	$poly_conn
Rl75	I0<1>/I1<3>/QB	I0<1>/I1<3>/QB#3	   90.3330	$poly_conn
Rl76	I0<1>/I1<3>/Q	I0<1>/I1<3>/Q#2	   56.4103	$poly_conn
Rl77	I0<1>/I1<3>/Q#2	I0<1>/I1<3>/Q#3	   90.3330
+ $poly_conn
Rl78	WL#50	WL#51	   59.7064	$poly_conn
Rl79	WL#51	WL#52	   59.7064	$poly_conn
Rl80	I0<1>/I1<6>/Q	I0<1>/I1<6>/Q#2	   90.3330	$poly_conn
Rl81	I0<1>/I1<6>/Q#2	I0<1>/I1<6>/Q#3	   56.4103
+ $poly_conn
Rl82	I0<1>/I1<6>/QB	I0<1>/I1<6>/QB#2	   56.4103	$poly_conn
Rl83	I0<1>/I1<6>/QB#2	I0<1>/I1<6>/QB#3	   90.3330
+ $poly_conn
Rl84	WL#54	WL#55	   59.7064	$poly_conn
Rl85	WL#55	WL#56	   59.7064	$poly_conn
Rl86	I0<1>/I1<5>/QB	I0<1>/I1<5>/QB#2	   56.4103	$poly_conn
Rl87	I0<1>/I1<5>/QB	I0<1>/I1<5>/QB#3	   90.3330	$poly_conn
Rl88	I0<1>/I1<5>/Q	I0<1>/I1<5>/Q#2	   56.4103	$poly_conn
Rl89	I0<1>/I1<5>/Q#2	I0<1>/I1<5>/Q#3	   90.3330
+ $poly_conn
Rl90	WL#58	WL#59	   59.7064	$poly_conn
Rl91	WL#59	WL#60	   59.7064	$poly_conn
Rl92	I0<1>/I1<7>/Q	I0<1>/I1<7>/Q#2	   90.3330	$poly_conn
Rl93	I0<1>/I1<7>/Q#2	I0<1>/I1<7>/Q#3	   56.4103
+ $poly_conn
Rl94	I0<1>/I1<7>/QB	I0<1>/I1<7>/QB#2	   56.4103	$poly_conn
Rl95	I0<1>/I1<7>/QB#2	I0<1>/I1<7>/QB#3	   90.3330
+ $poly_conn
Rl96	WL#62	WL#63	   59.7064	$poly_conn
Rl97	WL#63	WL#64	   59.7064	$poly_conn
Rl98	I0<2>/I1<0>/QB	I0<2>/I1<0>/QB#2	   56.4103	$poly_conn
Rl99	I0<2>/I1<0>/QB	I0<2>/I1<0>/QB#3	   90.3330	$poly_conn
Rl100	I0<2>/I1<0>/Q	I0<2>/I1<0>/Q#2	   56.4103	$poly_conn
Rl101	I0<2>/I1<0>/Q#2	I0<2>/I1<0>/Q#3	   90.3330
+ $poly_conn
Rl102	WL#66	WL#67	   59.7064	$poly_conn
Rl103	WL#67	WL#68	   59.7064	$poly_conn
Rl104	I0<2>/I1<2>/Q	I0<2>/I1<2>/Q#2	   90.3330	$poly_conn
Rl105	I0<2>/I1<2>/Q#2	I0<2>/I1<2>/Q#3	   56.4103
+ $poly_conn
Rl106	I0<2>/I1<2>/QB	I0<2>/I1<2>/QB#2	   56.4103	$poly_conn
Rl107	I0<2>/I1<2>/QB#2	I0<2>/I1<2>/QB#3	   90.3330
+ $poly_conn
Rl108	WL#70	WL#71	   59.7064	$poly_conn
Rl109	WL#71	WL#72	   59.7064	$poly_conn
Rl110	I0<2>/I1<1>/QB	I0<2>/I1<1>/QB#2	   56.4103	$poly_conn
Rl111	I0<2>/I1<1>/QB	I0<2>/I1<1>/QB#3	   90.3330	$poly_conn
Rl112	I0<2>/I1<1>/Q	I0<2>/I1<1>/Q#2	   56.4103	$poly_conn
Rl113	I0<2>/I1<1>/Q#2	I0<2>/I1<1>/Q#3	   90.3330
+ $poly_conn
Rl114	WL#74	WL#75	   59.7064	$poly_conn
Rl115	WL#75	WL#76	   59.7064	$poly_conn
Rl116	I0<2>/I1<4>/Q	I0<2>/I1<4>/Q#2	   90.3330	$poly_conn
Rl117	I0<2>/I1<4>/Q#2	I0<2>/I1<4>/Q#3	   56.4103
+ $poly_conn
Rl118	I0<2>/I1<4>/QB	I0<2>/I1<4>/QB#2	   56.4103	$poly_conn
Rl119	I0<2>/I1<4>/QB#2	I0<2>/I1<4>/QB#3	   90.3330
+ $poly_conn
Rl120	WL#78	WL#79	   59.7064	$poly_conn
Rl121	WL#79	WL#80	   59.7064	$poly_conn
Rl122	I0<2>/I1<3>/QB	I0<2>/I1<3>/QB#2	   56.4103	$poly_conn
Rl123	I0<2>/I1<3>/QB	I0<2>/I1<3>/QB#3	   90.3330	$poly_conn
Rl124	I0<2>/I1<3>/Q	I0<2>/I1<3>/Q#2	   56.4103	$poly_conn
Rl125	I0<2>/I1<3>/Q#2	I0<2>/I1<3>/Q#3	   90.3330
+ $poly_conn
Rl126	WL#82	WL#83	   59.7064	$poly_conn
Rl127	WL#83	WL#84	   59.7064	$poly_conn
Rl128	I0<2>/I1<6>/Q	I0<2>/I1<6>/Q#2	   90.3330	$poly_conn
Rl129	I0<2>/I1<6>/Q#2	I0<2>/I1<6>/Q#3	   56.4103
+ $poly_conn
Rl130	I0<2>/I1<6>/QB	I0<2>/I1<6>/QB#2	   56.4103	$poly_conn
Rl131	I0<2>/I1<6>/QB#2	I0<2>/I1<6>/QB#3	   90.3330
+ $poly_conn
Rl132	WL#86	WL#87	   59.7064	$poly_conn
Rl133	WL#87	WL#88	   59.7064	$poly_conn
Rl134	I0<2>/I1<5>/QB	I0<2>/I1<5>/QB#2	   56.4103	$poly_conn
Rl135	I0<2>/I1<5>/QB	I0<2>/I1<5>/QB#3	   90.3330	$poly_conn
Rl136	I0<2>/I1<5>/Q	I0<2>/I1<5>/Q#2	   56.4103	$poly_conn
Rl137	I0<2>/I1<5>/Q#2	I0<2>/I1<5>/Q#3	   90.3330
+ $poly_conn
Rl138	WL#90	WL#91	   59.7064	$poly_conn
Rl139	WL#91	WL#92	   59.7064	$poly_conn
Rl140	I0<2>/I1<7>/Q	I0<2>/I1<7>/Q#2	   90.3330	$poly_conn
Rl141	I0<2>/I1<7>/Q#2	I0<2>/I1<7>/Q#3	   56.4103
+ $poly_conn
Rl142	I0<2>/I1<7>/QB	I0<2>/I1<7>/QB#2	   56.4103	$poly_conn
Rl143	I0<2>/I1<7>/QB#2	I0<2>/I1<7>/QB#3	   90.3330
+ $poly_conn
Rl144	WL#94	WL#95	   59.7064	$poly_conn
Rl145	WL#95	WL#96	   59.7064	$poly_conn
Rl146	I0<3>/I1<0>/QB	I0<3>/I1<0>/QB#2	   56.4103	$poly_conn
Rl147	I0<3>/I1<0>/QB	I0<3>/I1<0>/QB#3	   90.3330	$poly_conn
Rl148	I0<3>/I1<0>/Q	I0<3>/I1<0>/Q#2	   56.4103	$poly_conn
Rl149	I0<3>/I1<0>/Q#2	I0<3>/I1<0>/Q#3	   90.3330
+ $poly_conn
Rl150	WL#98	WL#99	   59.7064	$poly_conn
Rl151	WL#99	WL#100	   59.7064	$poly_conn
Rl152	I0<3>/I1<2>/Q	I0<3>/I1<2>/Q#2	   90.3330	$poly_conn
Rl153	I0<3>/I1<2>/Q#2	I0<3>/I1<2>/Q#3	   56.4103
+ $poly_conn
Rl154	I0<3>/I1<2>/QB	I0<3>/I1<2>/QB#2	   56.4103	$poly_conn
Rl155	I0<3>/I1<2>/QB#2	I0<3>/I1<2>/QB#3	   90.3330
+ $poly_conn
Rl156	WL#102	WL#103	   59.7064	$poly_conn
Rl157	WL#103	WL#104	   59.7064	$poly_conn
Rl158	I0<3>/I1<1>/QB	I0<3>/I1<1>/QB#2	   56.4103	$poly_conn
Rl159	I0<3>/I1<1>/QB	I0<3>/I1<1>/QB#3	   90.3330	$poly_conn
Rl160	I0<3>/I1<1>/Q	I0<3>/I1<1>/Q#2	   56.4103	$poly_conn
Rl161	I0<3>/I1<1>/Q#2	I0<3>/I1<1>/Q#3	   90.3330
+ $poly_conn
Rl162	WL#106	WL#107	   59.7064	$poly_conn
Rl163	WL#107	WL#108	   59.7064	$poly_conn
Rl164	I0<3>/I1<4>/Q	I0<3>/I1<4>/Q#2	   90.3330	$poly_conn
Rl165	I0<3>/I1<4>/Q#2	I0<3>/I1<4>/Q#3	   56.4103
+ $poly_conn
Rl166	I0<3>/I1<4>/QB	I0<3>/I1<4>/QB#2	   56.4103	$poly_conn
Rl167	I0<3>/I1<4>/QB#2	I0<3>/I1<4>/QB#3	   90.3330
+ $poly_conn
Rl168	WL#110	WL#111	   59.7064	$poly_conn
Rl169	WL#111	WL#112	   59.7064	$poly_conn
Rl170	I0<3>/I1<3>/QB	I0<3>/I1<3>/QB#2	   56.4103	$poly_conn
Rl171	I0<3>/I1<3>/QB	I0<3>/I1<3>/QB#3	   90.3330	$poly_conn
Rl172	I0<3>/I1<3>/Q	I0<3>/I1<3>/Q#2	   56.4103	$poly_conn
Rl173	I0<3>/I1<3>/Q#2	I0<3>/I1<3>/Q#3	   90.3330
+ $poly_conn
Rl174	WL#114	WL#115	   59.7064	$poly_conn
Rl175	WL#115	WL#116	   59.7064	$poly_conn
Rl176	I0<3>/I1<6>/Q	I0<3>/I1<6>/Q#2	   90.3330	$poly_conn
Rl177	I0<3>/I1<6>/Q#2	I0<3>/I1<6>/Q#3	   56.4103
+ $poly_conn
Rl178	I0<3>/I1<6>/QB	I0<3>/I1<6>/QB#2	   56.4103	$poly_conn
Rl179	I0<3>/I1<6>/QB#2	I0<3>/I1<6>/QB#3	   90.3330
+ $poly_conn
Rl180	WL#118	WL#119	   59.7064	$poly_conn
Rl181	WL#119	WL#120	   59.7064	$poly_conn
Rl182	I0<3>/I1<5>/QB	I0<3>/I1<5>/QB#2	   56.4103	$poly_conn
Rl183	I0<3>/I1<5>/QB	I0<3>/I1<5>/QB#3	   90.3330	$poly_conn
Rl184	I0<3>/I1<5>/Q	I0<3>/I1<5>/Q#2	   56.4103	$poly_conn
Rl185	I0<3>/I1<5>/Q#2	I0<3>/I1<5>/Q#3	   90.3330
+ $poly_conn
Rl186	WL#122	WL#123	   59.7064	$poly_conn
Rl187	WL#123	WL#124	   59.7064	$poly_conn
Rl188	I0<3>/I1<7>/Q	I0<3>/I1<7>/Q#2	   90.3330	$poly_conn
Rl189	I0<3>/I1<7>/Q#2	I0<3>/I1<7>/Q#3	   56.4103
+ $poly_conn
Rl190	I0<3>/I1<7>/QB	I0<3>/I1<7>/QB#2	   56.4103	$poly_conn
Rl191	I0<3>/I1<7>/QB#2	I0<3>/I1<7>/QB#3	   90.3330
+ $poly_conn
Rl192	WL#126	WL#127	   59.7064	$poly_conn
Rl193	WL#127	WL#128	   59.7064	$poly_conn
Rl194	I0<4>/I1<0>/QB	I0<4>/I1<0>/QB#2	   56.4103	$poly_conn
Rl195	I0<4>/I1<0>/QB	I0<4>/I1<0>/QB#3	   90.3330	$poly_conn
Rl196	I0<4>/I1<0>/Q	I0<4>/I1<0>/Q#2	   56.4103	$poly_conn
Rl197	I0<4>/I1<0>/Q#2	I0<4>/I1<0>/Q#3	   90.3330
+ $poly_conn
Rl198	WL#130	WL#131	   59.7064	$poly_conn
Rl199	WL#131	WL#132	   59.7064	$poly_conn
Rl200	I0<4>/I1<2>/Q	I0<4>/I1<2>/Q#2	   90.3330	$poly_conn
Rl201	I0<4>/I1<2>/Q#2	I0<4>/I1<2>/Q#3	   56.4103
+ $poly_conn
Rl202	I0<4>/I1<2>/QB	I0<4>/I1<2>/QB#2	   56.4103	$poly_conn
Rl203	I0<4>/I1<2>/QB#2	I0<4>/I1<2>/QB#3	   90.3330
+ $poly_conn
Rl204	WL#134	WL#135	   59.7064	$poly_conn
Rl205	WL#135	WL#136	   59.7064	$poly_conn
Rl206	I0<4>/I1<1>/QB	I0<4>/I1<1>/QB#2	   56.4103	$poly_conn
Rl207	I0<4>/I1<1>/QB	I0<4>/I1<1>/QB#3	   90.3330	$poly_conn
Rl208	I0<4>/I1<1>/Q	I0<4>/I1<1>/Q#2	   56.4103	$poly_conn
Rl209	I0<4>/I1<1>/Q#2	I0<4>/I1<1>/Q#3	   90.3330
+ $poly_conn
Rl210	WL#138	WL#139	   59.7064	$poly_conn
Rl211	WL#139	WL#140	   59.7064	$poly_conn
Rl212	I0<4>/I1<4>/Q	I0<4>/I1<4>/Q#2	   90.3330	$poly_conn
Rl213	I0<4>/I1<4>/Q#2	I0<4>/I1<4>/Q#3	   56.4103
+ $poly_conn
Rl214	I0<4>/I1<4>/QB	I0<4>/I1<4>/QB#2	   56.4103	$poly_conn
Rl215	I0<4>/I1<4>/QB#2	I0<4>/I1<4>/QB#3	   90.3330
+ $poly_conn
Rl216	WL#142	WL#143	   59.7064	$poly_conn
Rl217	WL#143	WL#144	   59.7064	$poly_conn
Rl218	I0<4>/I1<3>/QB	I0<4>/I1<3>/QB#2	   56.4103	$poly_conn
Rl219	I0<4>/I1<3>/QB	I0<4>/I1<3>/QB#3	   90.3330	$poly_conn
Rl220	I0<4>/I1<3>/Q	I0<4>/I1<3>/Q#2	   56.4103	$poly_conn
Rl221	I0<4>/I1<3>/Q#2	I0<4>/I1<3>/Q#3	   90.3330
+ $poly_conn
Rl222	WL#146	WL#147	   59.7064	$poly_conn
Rl223	WL#147	WL#148	   59.7064	$poly_conn
Rl224	I0<4>/I1<6>/Q	I0<4>/I1<6>/Q#2	   90.3330	$poly_conn
Rl225	I0<4>/I1<6>/Q#2	I0<4>/I1<6>/Q#3	   56.4103
+ $poly_conn
Rl226	I0<4>/I1<6>/QB	I0<4>/I1<6>/QB#2	   56.4103	$poly_conn
Rl227	I0<4>/I1<6>/QB#2	I0<4>/I1<6>/QB#3	   90.3330
+ $poly_conn
Rl228	WL#150	WL#151	   59.7064	$poly_conn
Rl229	WL#151	WL#152	   59.7064	$poly_conn
Rl230	I0<4>/I1<5>/QB	I0<4>/I1<5>/QB#2	   56.4103	$poly_conn
Rl231	I0<4>/I1<5>/QB	I0<4>/I1<5>/QB#3	   90.3330	$poly_conn
Rl232	I0<4>/I1<5>/Q	I0<4>/I1<5>/Q#2	   56.4103	$poly_conn
Rl233	I0<4>/I1<5>/Q#2	I0<4>/I1<5>/Q#3	   90.3330
+ $poly_conn
Rl234	WL#154	WL#155	   59.7064	$poly_conn
Rl235	WL#155	WL#156	   59.7064	$poly_conn
Rl236	I0<4>/I1<7>/Q	I0<4>/I1<7>/Q#2	   90.3330	$poly_conn
Rl237	I0<4>/I1<7>/Q#2	I0<4>/I1<7>/Q#3	   56.4103
+ $poly_conn
Rl238	I0<4>/I1<7>/QB	I0<4>/I1<7>/QB#2	   56.4103	$poly_conn
Rl239	I0<4>/I1<7>/QB#2	I0<4>/I1<7>/QB#3	   90.3330
+ $poly_conn
Rl240	WL#158	WL#159	   59.7064	$poly_conn
Rl241	WL#159	WL#160	   59.7064	$poly_conn
Rl242	I0<5>/I1<0>/QB	I0<5>/I1<0>/QB#2	   56.4103	$poly_conn
Rl243	I0<5>/I1<0>/QB	I0<5>/I1<0>/QB#3	   90.3330	$poly_conn
Rl244	I0<5>/I1<0>/Q	I0<5>/I1<0>/Q#2	   56.4103	$poly_conn
Rl245	I0<5>/I1<0>/Q#2	I0<5>/I1<0>/Q#3	   90.3330
+ $poly_conn
Rl246	WL#162	WL#163	   59.7064	$poly_conn
Rl247	WL#163	WL#164	   59.7064	$poly_conn
Rl248	I0<5>/I1<2>/Q	I0<5>/I1<2>/Q#2	   90.3330	$poly_conn
Rl249	I0<5>/I1<2>/Q#2	I0<5>/I1<2>/Q#3	   56.4103
+ $poly_conn
Rl250	I0<5>/I1<2>/QB	I0<5>/I1<2>/QB#2	   56.4103	$poly_conn
Rl251	I0<5>/I1<2>/QB#2	I0<5>/I1<2>/QB#3	   90.3330
+ $poly_conn
Rl252	WL#166	WL#167	   59.7064	$poly_conn
Rl253	WL#167	WL#168	   59.7064	$poly_conn
Rl254	I0<5>/I1<1>/QB	I0<5>/I1<1>/QB#2	   56.4103	$poly_conn
Rl255	I0<5>/I1<1>/QB	I0<5>/I1<1>/QB#3	   90.3330	$poly_conn
Rl256	I0<5>/I1<1>/Q	I0<5>/I1<1>/Q#2	   56.4103	$poly_conn
Rl257	I0<5>/I1<1>/Q#2	I0<5>/I1<1>/Q#3	   90.3330
+ $poly_conn
Rl258	WL#170	WL#171	   59.7064	$poly_conn
Rl259	WL#171	WL#172	   59.7064	$poly_conn
Rl260	I0<5>/I1<4>/Q	I0<5>/I1<4>/Q#2	   90.3330	$poly_conn
Rl261	I0<5>/I1<4>/Q#2	I0<5>/I1<4>/Q#3	   56.4103
+ $poly_conn
Rl262	I0<5>/I1<4>/QB	I0<5>/I1<4>/QB#2	   56.4103	$poly_conn
Rl263	I0<5>/I1<4>/QB#2	I0<5>/I1<4>/QB#3	   90.3330
+ $poly_conn
Rl264	WL#174	WL#175	   59.7064	$poly_conn
Rl265	WL#175	WL#176	   59.7064	$poly_conn
Rl266	I0<5>/I1<3>/QB	I0<5>/I1<3>/QB#2	   56.4103	$poly_conn
Rl267	I0<5>/I1<3>/QB	I0<5>/I1<3>/QB#3	   90.3330	$poly_conn
Rl268	I0<5>/I1<3>/Q	I0<5>/I1<3>/Q#2	   56.4103	$poly_conn
Rl269	I0<5>/I1<3>/Q#2	I0<5>/I1<3>/Q#3	   90.3330
+ $poly_conn
Rl270	WL#178	WL#179	   59.7064	$poly_conn
Rl271	WL#179	WL#180	   59.7064	$poly_conn
Rl272	I0<5>/I1<6>/Q	I0<5>/I1<6>/Q#2	   90.3330	$poly_conn
Rl273	I0<5>/I1<6>/Q#2	I0<5>/I1<6>/Q#3	   56.4103
+ $poly_conn
Rl274	I0<5>/I1<6>/QB	I0<5>/I1<6>/QB#2	   56.4103	$poly_conn
Rl275	I0<5>/I1<6>/QB#2	I0<5>/I1<6>/QB#3	   90.3330
+ $poly_conn
Rl276	WL#182	WL#183	   59.7064	$poly_conn
Rl277	WL#183	WL#184	   59.7064	$poly_conn
Rl278	I0<5>/I1<5>/QB	I0<5>/I1<5>/QB#2	   56.4103	$poly_conn
Rl279	I0<5>/I1<5>/QB	I0<5>/I1<5>/QB#3	   90.3330	$poly_conn
Rl280	I0<5>/I1<5>/Q	I0<5>/I1<5>/Q#2	   56.4103	$poly_conn
Rl281	I0<5>/I1<5>/Q#2	I0<5>/I1<5>/Q#3	   90.3330
+ $poly_conn
Rl282	WL#186	WL#187	   59.7064	$poly_conn
Rl283	WL#187	WL#188	   59.7064	$poly_conn
Rl284	I0<5>/I1<7>/Q	I0<5>/I1<7>/Q#2	   90.3330	$poly_conn
Rl285	I0<5>/I1<7>/Q#2	I0<5>/I1<7>/Q#3	   56.4103
+ $poly_conn
Rl286	I0<5>/I1<7>/QB	I0<5>/I1<7>/QB#2	   56.4103	$poly_conn
Rl287	I0<5>/I1<7>/QB#2	I0<5>/I1<7>/QB#3	   90.3330
+ $poly_conn
Rl288	WL#190	WL#191	   59.7064	$poly_conn
Rl289	WL#191	WL#192	   59.7064	$poly_conn
Rl290	I0<6>/I1<0>/QB	I0<6>/I1<0>/QB#2	   56.4103	$poly_conn
Rl291	I0<6>/I1<0>/QB	I0<6>/I1<0>/QB#3	   90.3330	$poly_conn
Rl292	I0<6>/I1<0>/Q	I0<6>/I1<0>/Q#2	   56.4103	$poly_conn
Rl293	I0<6>/I1<0>/Q#2	I0<6>/I1<0>/Q#3	   90.3330
+ $poly_conn
Rl294	WL#194	WL#195	   59.7064	$poly_conn
Rl295	WL#195	WL#196	   59.7064	$poly_conn
Rl296	I0<6>/I1<2>/Q	I0<6>/I1<2>/Q#2	   90.3330	$poly_conn
Rl297	I0<6>/I1<2>/Q#2	I0<6>/I1<2>/Q#3	   56.4103
+ $poly_conn
Rl298	I0<6>/I1<2>/QB	I0<6>/I1<2>/QB#2	   56.4103	$poly_conn
Rl299	I0<6>/I1<2>/QB#2	I0<6>/I1<2>/QB#3	   90.3330
+ $poly_conn
Rl300	WL#198	WL#199	   59.7064	$poly_conn
Rl301	WL#199	WL#200	   59.7064	$poly_conn
Rl302	I0<6>/I1<1>/QB	I0<6>/I1<1>/QB#2	   56.4103	$poly_conn
Rl303	I0<6>/I1<1>/QB	I0<6>/I1<1>/QB#3	   90.3330	$poly_conn
Rl304	I0<6>/I1<1>/Q	I0<6>/I1<1>/Q#2	   56.4103	$poly_conn
Rl305	I0<6>/I1<1>/Q#2	I0<6>/I1<1>/Q#3	   90.3330
+ $poly_conn
Rl306	WL#202	WL#203	   59.7064	$poly_conn
Rl307	WL#203	WL#204	   59.7064	$poly_conn
Rl308	I0<6>/I1<4>/Q	I0<6>/I1<4>/Q#2	   90.3330	$poly_conn
Rl309	I0<6>/I1<4>/Q#2	I0<6>/I1<4>/Q#3	   56.4103
+ $poly_conn
Rl310	I0<6>/I1<4>/QB	I0<6>/I1<4>/QB#2	   56.4103	$poly_conn
Rl311	I0<6>/I1<4>/QB#2	I0<6>/I1<4>/QB#3	   90.3330
+ $poly_conn
Rl312	WL#206	WL#207	   59.7064	$poly_conn
Rl313	WL#207	WL#208	   59.7064	$poly_conn
Rl314	I0<6>/I1<3>/QB	I0<6>/I1<3>/QB#2	   56.4103	$poly_conn
Rl315	I0<6>/I1<3>/QB	I0<6>/I1<3>/QB#3	   90.3330	$poly_conn
Rl316	I0<6>/I1<3>/Q	I0<6>/I1<3>/Q#2	   56.4103	$poly_conn
Rl317	I0<6>/I1<3>/Q#2	I0<6>/I1<3>/Q#3	   90.3330
+ $poly_conn
Rl318	WL#210	WL#211	   59.7064	$poly_conn
Rl319	WL#211	WL#212	   59.7064	$poly_conn
Rl320	I0<6>/I1<6>/Q	I0<6>/I1<6>/Q#2	   90.3330	$poly_conn
Rl321	I0<6>/I1<6>/Q#2	I0<6>/I1<6>/Q#3	   56.4103
+ $poly_conn
Rl322	I0<6>/I1<6>/QB	I0<6>/I1<6>/QB#2	   56.4103	$poly_conn
Rl323	I0<6>/I1<6>/QB#2	I0<6>/I1<6>/QB#3	   90.3330
+ $poly_conn
Rl324	WL#214	WL#215	   59.7064	$poly_conn
Rl325	WL#215	WL#216	   59.7064	$poly_conn
Rl326	I0<6>/I1<5>/QB	I0<6>/I1<5>/QB#2	   56.4103	$poly_conn
Rl327	I0<6>/I1<5>/QB	I0<6>/I1<5>/QB#3	   90.3330	$poly_conn
Rl328	I0<6>/I1<5>/Q	I0<6>/I1<5>/Q#2	   56.4103	$poly_conn
Rl329	I0<6>/I1<5>/Q#2	I0<6>/I1<5>/Q#3	   90.3330
+ $poly_conn
Rl330	WL#218	WL#219	   59.7064	$poly_conn
Rl331	WL#219	WL#220	   59.7064	$poly_conn
Rl332	I0<6>/I1<7>/Q	I0<6>/I1<7>/Q#2	   90.3330	$poly_conn
Rl333	I0<6>/I1<7>/Q#2	I0<6>/I1<7>/Q#3	   56.4103
+ $poly_conn
Rl334	I0<6>/I1<7>/QB	I0<6>/I1<7>/QB#2	   56.4103	$poly_conn
Rl335	I0<6>/I1<7>/QB#2	I0<6>/I1<7>/QB#3	   90.3330
+ $poly_conn
Rl336	WL#222	WL#223	   59.7064	$poly_conn
Rl337	WL#223	WL#224	   59.7064	$poly_conn
Rl338	I0<7>/I1<0>/QB	I0<7>/I1<0>/QB#2	   56.4103	$poly_conn
Rl339	I0<7>/I1<0>/QB	I0<7>/I1<0>/QB#3	   90.3330	$poly_conn
Rl340	I0<7>/I1<0>/Q	I0<7>/I1<0>/Q#2	   56.4103	$poly_conn
Rl341	I0<7>/I1<0>/Q#2	I0<7>/I1<0>/Q#3	   90.3330
+ $poly_conn
Rl342	WL#226	WL#227	   59.7064	$poly_conn
Rl343	WL#227	WL#228	   59.7064	$poly_conn
Rl344	I0<7>/I1<2>/Q	I0<7>/I1<2>/Q#2	   90.3330	$poly_conn
Rl345	I0<7>/I1<2>/Q#2	I0<7>/I1<2>/Q#3	   56.4103
+ $poly_conn
Rl346	I0<7>/I1<2>/QB	I0<7>/I1<2>/QB#2	   56.4103	$poly_conn
Rl347	I0<7>/I1<2>/QB#2	I0<7>/I1<2>/QB#3	   90.3330
+ $poly_conn
Rl348	WL#230	WL#231	   59.7064	$poly_conn
Rl349	WL#231	WL#232	   59.7064	$poly_conn
Rl350	I0<7>/I1<1>/QB	I0<7>/I1<1>/QB#2	   56.4103	$poly_conn
Rl351	I0<7>/I1<1>/QB	I0<7>/I1<1>/QB#3	   90.3330	$poly_conn
Rl352	I0<7>/I1<1>/Q	I0<7>/I1<1>/Q#2	   56.4103	$poly_conn
Rl353	I0<7>/I1<1>/Q#2	I0<7>/I1<1>/Q#3	   90.3330
+ $poly_conn
Rl354	WL#234	WL#235	   59.7064	$poly_conn
Rl355	WL#235	WL#236	   59.7064	$poly_conn
Rl356	I0<7>/I1<4>/Q	I0<7>/I1<4>/Q#2	   90.3330	$poly_conn
Rl357	I0<7>/I1<4>/Q#2	I0<7>/I1<4>/Q#3	   56.4103
+ $poly_conn
Rl358	I0<7>/I1<4>/QB	I0<7>/I1<4>/QB#2	   56.4103	$poly_conn
Rl359	I0<7>/I1<4>/QB#2	I0<7>/I1<4>/QB#3	   90.3330
+ $poly_conn
Rl360	WL#238	WL#239	   59.7064	$poly_conn
Rl361	WL#239	WL#240	   59.7064	$poly_conn
Rl362	I0<7>/I1<3>/QB	I0<7>/I1<3>/QB#2	   56.4103	$poly_conn
Rl363	I0<7>/I1<3>/QB	I0<7>/I1<3>/QB#3	   90.3330	$poly_conn
Rl364	I0<7>/I1<3>/Q	I0<7>/I1<3>/Q#2	   56.4103	$poly_conn
Rl365	I0<7>/I1<3>/Q#2	I0<7>/I1<3>/Q#3	   90.3330
+ $poly_conn
Rl366	WL#242	WL#243	   59.7064	$poly_conn
Rl367	WL#243	WL#244	   59.7064	$poly_conn
Rl368	I0<7>/I1<6>/Q	I0<7>/I1<6>/Q#2	   90.3330	$poly_conn
Rl369	I0<7>/I1<6>/Q#2	I0<7>/I1<6>/Q#3	   56.4103
+ $poly_conn
Rl370	I0<7>/I1<6>/QB	I0<7>/I1<6>/QB#2	   56.4103	$poly_conn
Rl371	I0<7>/I1<6>/QB#2	I0<7>/I1<6>/QB#3	   90.3330
+ $poly_conn
Rl372	WL#246	WL#247	   59.7064	$poly_conn
Rl373	WL#247	WL#248	   59.7064	$poly_conn
Rl374	I0<7>/I1<5>/QB	I0<7>/I1<5>/QB#2	   56.4103	$poly_conn
Rl375	I0<7>/I1<5>/QB	I0<7>/I1<5>/QB#3	   90.3330	$poly_conn
Rl376	I0<7>/I1<5>/Q	I0<7>/I1<5>/Q#2	   56.4103	$poly_conn
Rl377	I0<7>/I1<5>/Q#2	I0<7>/I1<5>/Q#3	   90.3330
+ $poly_conn
Rl378	WL#250	WL#251	   59.7064	$poly_conn
Rl379	WL#251	WL#252	   59.7064	$poly_conn
Rl380	I0<7>/I1<7>/Q	I0<7>/I1<7>/Q#2	   90.3330	$poly_conn
Rl381	I0<7>/I1<7>/Q#2	I0<7>/I1<7>/Q#3	   56.4103
+ $poly_conn
Rl382	I0<7>/I1<7>/QB	I0<7>/I1<7>/QB#2	   56.4103	$poly_conn
Rl383	I0<7>/I1<7>/QB#2	I0<7>/I1<7>/QB#3	   90.3330
+ $poly_conn
Rl384	WL#254	WL#255	  104.7064	$poly_conn
Rk1	WL#2	WL#9	    6.6000	$metal1_conn
Rk2	VSS#4	VSS#3	   27.3715	$metal1_conn
Rk3	VSS#6	VSS#2	   75.1654	$metal1_conn
Rk4	BL<0>#1	BL<0>#2	   81.6000	$metal1_conn
Rk5	I0<0>/I1<0>/Q#3	I0<0>/I1<0>/Q#5	    0.1668
+ $metal1_conn
Rk6	I0<0>/I1<0>/Q#5	I0<0>/I1<0>/Q#6	   75.2863
+ $metal1_conn
Rk7	I0<0>/I1<0>/Q#4	I0<0>/I1<0>/Q#5	   62.0000
+ $metal1_conn
Rk8	VDD#1	VDD#2	   68.7306	$metal1_conn
Rk9	VDD#3	VDD#4	   31.6000	$metal1_conn
Rk10	VDD#5	VDD#6	   68.7306	$metal1_conn
Rk11	BLB<0>#3	BLB<0>#1	   75.0000	$metal1_conn
Rk12	I0<0>/I1<0>/QB#4	I0<0>/I1<0>/QB#6	   75.2854
+ $metal1_conn
Rk13	I0<0>/I1<0>/QB#6	I0<0>/I1<0>/QB#3	    0.1668
+ $metal1_conn
Rk14	I0<0>/I1<0>/QB#5	I0<0>/I1<0>/QB#6	   62.0000
+ $metal1_conn
Rk15	WL#4	WL#13	   51.6000	$metal1_conn
Rk16	VSS#7	VSS#4	   19.0550	$metal1_conn
Rk17	VSS#11	VSS#8	   75.1654	$metal1_conn
Rk18	VSS#8	VSS#12	   75.1654	$metal1_conn
Rk19	BLB<1>#1	BLB<1>#2	   81.6000	$metal1_conn
Rk20	I0<0>/I1<2>/QB#3	I0<0>/I1<2>/QB#5	    0.1668
+ $metal1_conn
Rk21	I0<0>/I1<2>/QB#5	I0<0>/I1<2>/QB#6	   75.2854
+ $metal1_conn
Rk22	I0<0>/I1<2>/QB#4	I0<0>/I1<2>/QB#5	   62.0000
+ $metal1_conn
Rk23	VDD#10	VDD#11	   68.7306	$metal1_conn
Rk24	VDD#12	VDD#13	   31.6000	$metal1_conn
Rk25	VDD#14	VDD#15	   68.7306	$metal1_conn
Rk26	BL<1>#1	BL<1>#2	   81.6000	$metal1_conn
Rk27	I0<0>/I1<2>/Q#4	I0<0>/I1<2>/Q#6	   75.2863
+ $metal1_conn
Rk28	I0<0>/I1<2>/Q#6	I0<0>/I1<2>/Q	    0.1668	$metal1_conn
Rk29	I0<0>/I1<2>/Q#5	I0<0>/I1<2>/Q#6	   62.0000
+ $metal1_conn
Rk30	WL#7	WL#17	   51.6000	$metal1_conn
Rk31	VSS#15	VSS#4	   19.0550	$metal1_conn
Rk32	VSS#17	VSS#14	   75.1654	$metal1_conn
Rk33	VSS#14	VSS#18	   75.1654	$metal1_conn
Rk34	BL<2>#1	BL<2>#2	   81.6000	$metal1_conn
Rk35	I0<0>/I1<1>/Q#3	I0<0>/I1<1>/Q#5	    0.1668
+ $metal1_conn
Rk36	I0<0>/I1<1>/Q#5	I0<0>/I1<1>/Q#6	   75.2863
+ $metal1_conn
Rk37	I0<0>/I1<1>/Q#4	I0<0>/I1<1>/Q#5	   62.0000
+ $metal1_conn
Rk38	VDD#19	VDD#20	   68.7306	$metal1_conn
Rk39	VDD#21	VDD#22	   31.6000	$metal1_conn
Rk40	VDD#23	VDD#24	   68.7306	$metal1_conn
Rk41	BLB<2>#3	BLB<2>#1	   75.0000	$metal1_conn
Rk42	I0<0>/I1<1>/QB#4	I0<0>/I1<1>/QB#6	   75.2854
+ $metal1_conn
Rk43	I0<0>/I1<1>/QB#6	I0<0>/I1<1>/QB#3	    0.1668
+ $metal1_conn
Rk44	I0<0>/I1<1>/QB#5	I0<0>/I1<1>/QB#6	   62.0000
+ $metal1_conn
Rk45	WL#11	WL#21	   51.6000	$metal1_conn
Rk46	VSS#19	VSS#4	   19.0550	$metal1_conn
Rk47	VSS#23	VSS#20	   75.1654	$metal1_conn
Rk48	VSS#20	VSS#24	   75.1654	$metal1_conn
Rk49	BLB<3>#1	BLB<3>#2	   81.6000	$metal1_conn
Rk50	I0<0>/I1<4>/QB#3	I0<0>/I1<4>/QB#5	    0.1668
+ $metal1_conn
Rk51	I0<0>/I1<4>/QB#5	I0<0>/I1<4>/QB#6	   75.2854
+ $metal1_conn
Rk52	I0<0>/I1<4>/QB#4	I0<0>/I1<4>/QB#5	   62.0000
+ $metal1_conn
Rk53	VDD#28	VDD#29	   68.7306	$metal1_conn
Rk54	VDD#30	VDD#31	   31.6000	$metal1_conn
Rk55	VDD#32	VDD#33	   68.7306	$metal1_conn
Rk56	BL<3>#1	BL<3>#2	   81.6000	$metal1_conn
Rk57	I0<0>/I1<4>/Q#4	I0<0>/I1<4>/Q#6	   75.2863
+ $metal1_conn
Rk58	I0<0>/I1<4>/Q#6	I0<0>/I1<4>/Q	    0.1668	$metal1_conn
Rk59	I0<0>/I1<4>/Q#5	I0<0>/I1<4>/Q#6	   62.0000
+ $metal1_conn
Rk60	WL#15	WL#25	   51.6000	$metal1_conn
Rk61	VSS#27	VSS#4	   19.0550	$metal1_conn
Rk62	VSS#29	VSS#26	   75.1654	$metal1_conn
Rk63	VSS#26	VSS#30	   75.1654	$metal1_conn
Rk64	BL<4>#1	BL<4>#2	   81.6000	$metal1_conn
Rk65	I0<0>/I1<3>/Q#3	I0<0>/I1<3>/Q#5	    0.1668
+ $metal1_conn
Rk66	I0<0>/I1<3>/Q#5	I0<0>/I1<3>/Q#6	   75.2863
+ $metal1_conn
Rk67	I0<0>/I1<3>/Q#4	I0<0>/I1<3>/Q#5	   62.0000
+ $metal1_conn
Rk68	VDD#37	VDD#38	   68.7306	$metal1_conn
Rk69	VDD#39	VDD#40	   31.6000	$metal1_conn
Rk70	VDD#41	VDD#42	   68.7306	$metal1_conn
Rk71	BLB<4>#3	BLB<4>#1	   75.0000	$metal1_conn
Rk72	I0<0>/I1<3>/QB#4	I0<0>/I1<3>/QB#6	   75.2854
+ $metal1_conn
Rk73	I0<0>/I1<3>/QB#6	I0<0>/I1<3>/QB#3	    0.1668
+ $metal1_conn
Rk74	I0<0>/I1<3>/QB#5	I0<0>/I1<3>/QB#6	   62.0000
+ $metal1_conn
Rk75	WL#19	WL#29	   51.6000	$metal1_conn
Rk76	VSS#31	VSS#4	   19.0550	$metal1_conn
Rk77	VSS#35	VSS#32	   75.1654	$metal1_conn
Rk78	VSS#32	VSS#36	   75.1654	$metal1_conn
Rk79	BLB<5>#1	BLB<5>#2	   81.6000	$metal1_conn
Rk80	I0<0>/I1<6>/QB#3	I0<0>/I1<6>/QB#5	    0.1668
+ $metal1_conn
Rk81	I0<0>/I1<6>/QB#5	I0<0>/I1<6>/QB#6	   75.2854
+ $metal1_conn
Rk82	I0<0>/I1<6>/QB#4	I0<0>/I1<6>/QB#5	   62.0000
+ $metal1_conn
Rk83	VDD#46	VDD#47	   68.7306	$metal1_conn
Rk84	VDD#48	VDD#49	   31.6000	$metal1_conn
Rk85	VDD#50	VDD#51	   68.7306	$metal1_conn
Rk86	BL<5>#1	BL<5>#2	   81.6000	$metal1_conn
Rk87	I0<0>/I1<6>/Q#4	I0<0>/I1<6>/Q#6	   75.2863
+ $metal1_conn
Rk88	I0<0>/I1<6>/Q#6	I0<0>/I1<6>/Q	    0.1668	$metal1_conn
Rk89	I0<0>/I1<6>/Q#5	I0<0>/I1<6>/Q#6	   62.0000
+ $metal1_conn
Rk90	WL#23	WL#33	   51.6000	$metal1_conn
Rk91	VSS#39	VSS#4	   19.0550	$metal1_conn
Rk92	VSS#41	VSS#38	   75.1654	$metal1_conn
Rk93	VSS#38	VSS#42	   75.1654	$metal1_conn
Rk94	BL<6>#1	BL<6>#2	   81.6000	$metal1_conn
Rk95	I0<0>/I1<5>/Q#3	I0<0>/I1<5>/Q#5	    0.1668
+ $metal1_conn
Rk96	I0<0>/I1<5>/Q#5	I0<0>/I1<5>/Q#6	   75.2863
+ $metal1_conn
Rk97	I0<0>/I1<5>/Q#4	I0<0>/I1<5>/Q#5	   62.0000
+ $metal1_conn
[...]
C1385	VDD#526	VSS	7.02553e-17	$cmodel
C1386	VDD#527	VSS	2.80562e-17	$cmodel
C1387	I0<7>/I1<1>/QB#5	VSS	5.29981e-17	$cmodel
C1388	I0<7>/I1<1>/Q#4	VSS	5.14262e-17	$cmodel
C1389	VDD#524	VSS	2.87131e-17	$cmodel
C1390	I0<7>/I1<1>/Q#6	VSS	5.98945e-17	$cmodel
C1391	I0<7>/I1<2>/Q#4	VSS	5.83319e-17	$cmodel
C1392	VDD#517	VSS	7.18603e-17	$cmodel
C1393	I0<7>/I1<2>/Q#5	VSS	5.14966e-17	$cmodel
C1394	VDD#518	VSS	2.87175e-17	$cmodel
C1395	VDD#515	VSS	2.80432e-17	$cmodel
C1396	I0<7>/I1<2>/QB#4	VSS	5.34662e-17	$cmodel
C1397	I0<7>/I1<2>/QB#6	VSS	6.16901e-17	$cmodel
C1398	I0<7>/I1<0>/QB#4	VSS	6.08254e-17	$cmodel
C1399	VDD#508	VSS	7.02553e-17	$cmodel
C1400	VDD#509	VSS	2.80562e-17	$cmodel
C1401	I0<7>/I1<0>/QB#5	VSS	5.29981e-17	$cmodel
C1402	I0<7>/I1<0>/Q#4	VSS	5.14262e-17	$cmodel
C1403	VDD#506	VSS	2.87131e-17	$cmodel
C1404	I0<7>/I1<0>/Q#6	VSS	5.98945e-17	$cmodel
C1405	I0<6>/I1<7>/Q#4	VSS	5.83319e-17	$cmodel
C1406	VDD#499	VSS	7.18603e-17	$cmodel
C1407	I0<6>/I1<7>/Q#5	VSS	5.14966e-17	$cmodel
C1408	VDD#500	VSS	2.87175e-17	$cmodel
C1409	VDD#497	VSS	2.80432e-17	$cmodel
C1410	I0<6>/I1<7>/QB#4	VSS	5.34662e-17	$cmodel
C1411	I0<6>/I1<7>/QB#6	VSS	6.16901e-17	$cmodel
C1412	I0<6>/I1<5>/QB#4	VSS	6.08254e-17	$cmodel
C1413	VDD#490	VSS	7.02553e-17	$cmodel
C1414	VDD#491	VSS	2.80562e-17	$cmodel
C1415	I0<6>/I1<5>/QB#5	VSS	5.29981e-17	$cmodel
C1416	I0<6>/I1<5>/Q#4	VSS	5.14262e-17	$cmodel
C1417	VDD#488	VSS	2.87131e-17	$cmodel
C1418	I0<6>/I1<5>/Q#6	VSS	5.98945e-17	$cmodel
C1419	I0<6>/I1<6>/Q#4	VSS	5.83319e-17	$cmodel
C1420	VDD#481	VSS	7.18603e-17	$cmodel
C1421	I0<6>/I1<6>/Q#5	VSS	5.14966e-17	$cmodel
C1422	VDD#482	VSS	2.87175e-17	$cmodel
C1423	VDD#479	VSS	2.80432e-17	$cmodel
C1424	I0<6>/I1<6>/QB#4	VSS	5.34662e-17	$cmodel
C1425	I0<6>/I1<6>/QB#6	VSS	6.16901e-17	$cmodel
C1426	I0<6>/I1<3>/QB#4	VSS	6.08254e-17	$cmodel
C1427	VDD#472	VSS	7.02553e-17	$cmodel
C1428	VDD#473	VSS	2.80562e-17	$cmodel
C1429	I0<6>/I1<3>/QB#5	VSS	5.29981e-17	$cmodel
C1430	I0<6>/I1<3>/Q#4	VSS	5.14262e-17	$cmodel
C1431	VDD#470	VSS	2.87131e-17	$cmodel
C1432	I0<6>/I1<3>/Q#6	VSS	5.98945e-17	$cmodel
C1433	I0<6>/I1<4>/Q#4	VSS	5.83319e-17	$cmodel
C1434	VDD#463	VSS	7.18603e-17	$cmodel
C1435	I0<6>/I1<4>/Q#5	VSS	5.14966e-17	$cmodel
C1436	VDD#464	VSS	2.87175e-17	$cmodel
C1437	VDD#461	VSS	2.80432e-17	$cmodel
C1438	I0<6>/I1<4>/QB#4	VSS	5.34662e-17	$cmodel
C1439	I0<6>/I1<4>/QB#6	VSS	6.16901e-17	$cmodel
C1440	I0<6>/I1<1>/QB#4	VSS	6.08254e-17	$cmodel
C1441	VDD#454	VSS	7.02553e-17	$cmodel
C1442	VDD#455	VSS	2.80562e-17	$cmodel
C1443	I0<6>/I1<1>/QB#5	VSS	5.29981e-17	$cmodel
C1444	I0<6>/I1<1>/Q#4	VSS	5.14262e-17	$cmodel
C1445	VDD#452	VSS	2.87131e-17	$cmodel
C1446	I0<6>/I1<1>/Q#6	VSS	5.98945e-17	$cmodel
C1447	I0<6>/I1<2>/Q#4	VSS	5.83319e-17	$cmodel
C1448	VDD#445	VSS	7.18603e-17	$cmodel
C1449	I0<6>/I1<2>/Q#5	VSS	5.14966e-17	$cmodel
C1450	VDD#446	VSS	2.87175e-17	$cmodel
C1451	VDD#443	VSS	2.80432e-17	$cmodel
C1452	I0<6>/I1<2>/QB#4	VSS	5.34662e-17	$cmodel
C1453	I0<6>/I1<2>/QB#6	VSS	6.16901e-17	$cmodel
C1454	I0<6>/I1<0>/QB#4	VSS	6.08254e-17	$cmodel
C1455	VDD#436	VSS	7.02553e-17	$cmodel
C1456	VDD#437	VSS	2.80562e-17	$cmodel
C1457	I0<6>/I1<0>/QB#5	VSS	5.29981e-17	$cmodel
C1458	I0<6>/I1<0>/Q#4	VSS	5.14262e-17	$cmodel
C1459	VDD#434	VSS	2.87131e-17	$cmodel
C1460	I0<6>/I1<0>/Q#6	VSS	5.98945e-17	$cmodel
C1461	I0<5>/I1<7>/Q#4	VSS	5.83319e-17	$cmodel
C1462	VDD#427	VSS	7.18603e-17	$cmodel
C1463	I0<5>/I1<7>/Q#5	VSS	5.14966e-17	$cmodel
C1464	VDD#428	VSS	2.87175e-17	$cmodel
C1465	VDD#425	VSS	2.80432e-17	$cmodel
C1466	I0<5>/I1<7>/QB#4	VSS	5.34662e-17	$cmodel
C1467	I0<5>/I1<7>/QB#6	VSS	6.16901e-17	$cmodel
C1468	I0<5>/I1<5>/QB#4	VSS	6.08254e-17	$cmodel
C1469	VDD#418	VSS	7.02553e-17	$cmodel
C1470	VDD#419	VSS	2.80562e-17	$cmodel
C1471	I0<5>/I1<5>/QB#5	VSS	5.29981e-17	$cmodel
C1472	I0<5>/I1<5>/Q#4	VSS	5.14262e-17	$cmodel
C1473	VDD#416	VSS	2.87131e-17	$cmodel
C1474	I0<5>/I1<5>/Q#6	VSS	5.98945e-17	$cmodel
C1475	I0<5>/I1<6>/Q#4	VSS	5.83319e-17	$cmodel
C1476	VDD#409	VSS	7.18603e-17	$cmodel
C1477	I0<5>/I1<6>/Q#5	VSS	5.14966e-17	$cmodel
C1478	VDD#410	VSS	2.87175e-17	$cmodel
C1479	VDD#407	VSS	2.80432e-17	$cmodel
C1480	I0<5>/I1<6>/QB#4	VSS	5.34662e-17	$cmodel
C1481	I0<5>/I1<6>/QB#6	VSS	6.16901e-17	$cmodel
C1482	I0<5>/I1<3>/QB#4	VSS	6.08254e-17	$cmodel
C1483	VDD#400	VSS	7.02553e-17	$cmodel
C1484	VDD#401	VSS	2.80562e-17	$cmodel
C1485	I0<5>/I1<3>/QB#5	VSS	5.29981e-17	$cmodel
C1486	I0<5>/I1<3>/Q#4	VSS	5.14262e-17	$cmodel
C1487	VDD#398	VSS	2.87131e-17	$cmodel
C1488	I0<5>/I1<3>/Q#6	VSS	5.98945e-17	$cmodel
C1489	I0<5>/I1<4>/Q#4	VSS	5.83319e-17	$cmodel
C1490	VDD#391	VSS	7.18603e-17	$cmodel
C1491	I0<5>/I1<4>/Q#5	VSS	5.14966e-17	$cmodel
C1492	VDD#392	VSS	2.87175e-17	$cmodel
C1493	VDD#389	VSS	2.80432e-17	$cmodel
C1494	I0<5>/I1<4>/QB#4	VSS	5.34662e-17	$cmodel
C1495	I0<5>/I1<4>/QB#6	VSS	6.16901e-17	$cmodel
C1496	I0<5>/I1<1>/QB#4	VSS	6.08254e-17	$cmodel
C1497	VDD#382	VSS	7.02553e-17	$cmodel
C1498	VDD#383	VSS	2.80562e-17	$cmodel
C1499	I0<5>/I1<1>/QB#5	VSS	5.29981e-17	$cmodel
C1500	I0<5>/I1<1>/Q#4	VSS	5.14262e-17	$cmodel
C1501	VDD#380	VSS	2.87131e-17	$cmodel
C1502	I0<5>/I1<1>/Q#6	VSS	5.98945e-17	$cmodel
C1503	I0<5>/I1<2>/Q#4	VSS	5.83319e-17	$cmodel
C1504	VDD#373	VSS	7.18603e-17	$cmodel
C1505	I0<5>/I1<2>/Q#5	VSS	5.14966e-17	$cmodel
C1506	VDD#374	VSS	2.87175e-17	$cmodel
C1507	VDD#371	VSS	2.80432e-17	$cmodel
C1508	I0<5>/I1<2>/QB#4	VSS	5.34662e-17	$cmodel
C1509	I0<5>/I1<2>/QB#6	VSS	6.16901e-17	$cmodel
C1510	I0<5>/I1<0>/QB#4	VSS	6.08254e-17	$cmodel
C1511	VDD#364	VSS	7.02553e-17	$cmodel
C1512	VDD#365	VSS	2.80562e-17	$cmodel
C1513	I0<5>/I1<0>/QB#5	VSS	5.29981e-17	$cmodel
C1514	I0<5>/I1<0>/Q#4	VSS	5.14262e-17	$cmodel
C1515	VDD#362	VSS	2.87131e-17	$cmodel
C1516	I0<5>/I1<0>/Q#6	VSS	5.98945e-17	$cmodel
C1517	I0<4>/I1<7>/Q#4	VSS	5.83319e-17	$cmodel
C1518	VDD#355	VSS	7.18603e-17	$cmodel
C1519	I0<4>/I1<7>/Q#5	VSS	5.14966e-17	$cmodel
C1520	VDD#356	VSS	2.87175e-17	$cmodel
C1521	VDD#353	VSS	2.80432e-17	$cmodel
C1522	I0<4>/I1<7>/QB#4	VSS	5.34662e-17	$cmodel
C1523	I0<4>/I1<7>/QB#6	VSS	6.16901e-17	$cmodel
C1524	I0<4>/I1<5>/QB#4	VSS	6.08254e-17	$cmodel
C1525	VDD#346	VSS	7.02553e-17	$cmodel
C1526	VDD#347	VSS	2.80562e-17	$cmodel
C1527	I0<4>/I1<5>/QB#5	VSS	5.29981e-17	$cmodel
C1528	I0<4>/I1<5>/Q#4	VSS	5.14262e-17	$cmodel
C1529	VDD#344	VSS	2.87131e-17	$cmodel
C1530	I0<4>/I1<5>/Q#6	VSS	5.98945e-17	$cmodel
C1531	I0<4>/I1<6>/Q#4	VSS	5.83319e-17	$cmodel
C1532	VDD#337	VSS	7.18603e-17	$cmodel
C1533	I0<4>/I1<6>/Q#5	VSS	5.14966e-17	$cmodel
C1534	VDD#338	VSS	2.87175e-17	$cmodel
C1535	VDD#335	VSS	2.80432e-17	$cmodel
C1536	I0<4>/I1<6>/QB#4	VSS	5.34662e-17	$cmodel
C1537	I0<4>/I1<6>/QB#6	VSS	6.16901e-17	$cmodel
C1538	I0<4>/I1<3>/QB#4	VSS	6.08254e-17	$cmodel
C1539	VDD#328	VSS	7.02553e-17	$cmodel
C1540	VDD#329	VSS	2.80562e-17	$cmodel
C1541	I0<4>/I1<3>/QB#5	VSS	5.29981e-17	$cmodel
C1542	I0<4>/I1<3>/Q#4	VSS	5.14262e-17	$cmodel
C1543	VDD#326	VSS	2.87131e-17	$cmodel
C1544	I0<4>/I1<3>/Q#6	VSS	5.98945e-17	$cmodel
C1545	I0<4>/I1<4>/Q#4	VSS	5.83319e-17	$cmodel
C1546	VDD#319	VSS	7.18603e-17	$cmodel
C1547	I0<4>/I1<4>/Q#5	VSS	5.14966e-17	$cmodel
C1548	VDD#320	VSS	2.87175e-17	$cmodel
C1549	VDD#317	VSS	2.80432e-17	$cmodel
C1550	I0<4>/I1<4>/QB#4	VSS	5.34662e-17	$cmodel
C1551	I0<4>/I1<4>/QB#6	VSS	6.16901e-17	$cmodel
C1552	I0<4>/I1<1>/QB#4	VSS	6.08254e-17	$cmodel
C1553	VDD#310	VSS	7.02553e-17	$cmodel
C1554	VDD#311	VSS	2.80562e-17	$cmodel
C1555	I0<4>/I1<1>/QB#5	VSS	5.29981e-17	$cmodel
C1556	I0<4>/I1<1>/Q#4	VSS	5.14262e-17	$cmodel
C1557	VDD#308	VSS	2.87131e-17	$cmodel
C1558	I0<4>/I1<1>/Q#6	VSS	5.98945e-17	$cmodel
C1559	I0<4>/I1<2>/Q#4	VSS	5.83319e-17	$cmodel
C1560	VDD#301	VSS	7.18603e-17	$cmodel
C1561	I0<4>/I1<2>/Q#5	VSS	5.14966e-17	$cmodel
C1562	VDD#302	VSS	2.87175e-17	$cmodel
C1563	VDD#299	VSS	2.80432e-17	$cmodel
C1564	I0<4>/I1<2>/QB#4	VSS	5.34662e-17	$cmodel
C1565	I0<4>/I1<2>/QB#6	VSS	6.16901e-17	$cmodel
C1566	I0<4>/I1<0>/QB#4	VSS	6.08254e-17	$cmodel
C1567	VDD#292	VSS	7.02553e-17	$cmodel
C1568	VDD#293	VSS	2.80562e-17	$cmodel
C1569	I0<4>/I1<0>/QB#5	VSS	5.29981e-17	$cmodel
C1570	I0<4>/I1<0>/Q#4	VSS	5.14262e-17	$cmodel
C1571	VDD#290	VSS	2.87131e-17	$cmodel
C1572	I0<4>/I1<0>/Q#6	VSS	5.98945e-17	$cmodel
C1573	I0<3>/I1<7>/Q#4	VSS	5.83319e-17	$cmodel
C1574	VDD#283	VSS	7.18603e-17	$cmodel
C1575	I0<3>/I1<7>/Q#5	VSS	5.14966e-17	$cmodel
C1576	VDD#284	VSS	2.87175e-17	$cmodel
C1577	VDD#281	VSS	2.80432e-17	$cmodel
C1578	I0<3>/I1<7>/QB#4	VSS	5.34662e-17	$cmodel
C1579	I0<3>/I1<7>/QB#6	VSS	6.16901e-17	$cmodel
C1580	I0<3>/I1<5>/QB#4	VSS	6.08254e-17	$cmodel
C1581	VDD#274	VSS	7.02553e-17	$cmodel
C1582	VDD#275	VSS	2.80562e-17	$cmodel
C1583	I0<3>/I1<5>/QB#5	VSS	5.29981e-17	$cmodel
C1584	I0<3>/I1<5>/Q#4	VSS	5.14262e-17	$cmodel
C1585	VDD#272	VSS	2.87131e-17	$cmodel
C1586	I0<3>/I1<5>/Q#6	VSS	5.98945e-17	$cmodel
C1587	I0<3>/I1<6>/Q#4	VSS	5.83319e-17	$cmodel
C1588	VDD#265	VSS	7.18603e-17	$cmodel
C1589	I0<3>/I1<6>/Q#5	VSS	5.14966e-17	$cmodel
C1590	VDD#266	VSS	2.87175e-17	$cmodel
C1591	VDD#263	VSS	2.80432e-17	$cmodel
C1592	I0<3>/I1<6>/QB#4	VSS	5.34662e-17	$cmodel
C1593	I0<3>/I1<6>/QB#6	VSS	6.16901e-17	$cmodel
C1594	I0<3>/I1<3>/QB#4	VSS	6.08254e-17	$cmodel
C1595	VDD#256	VSS	7.02553e-17	$cmodel
C1596	VDD#257	VSS	2.80562e-17	$cmodel
C1597	I0<3>/I1<3>/QB#5	VSS	5.29981e-17	$cmodel
C1598	I0<3>/I1<3>/Q#4	VSS	5.14262e-17	$cmodel
C1599	VDD#254	VSS	2.87131e-17	$cmodel
C1600	I0<3>/I1<3>/Q#6	VSS	5.98945e-17	$cmodel
C1601	I0<3>/I1<4>/Q#4	VSS	5.83319e-17	$cmodel
C1602	VDD#247	VSS	7.18603e-17	$cmodel
C1603	I0<3>/I1<4>/Q#5	VSS	5.14966e-17	$cmodel
C1604	VDD#248	VSS	2.87175e-17	$cmodel
C1605	VDD#245	VSS	2.80432e-17	$cmodel
C1606	I0<3>/I1<4>/QB#4	VSS	5.34662e-17	$cmodel
C1607	I0<3>/I1<4>/QB#6	VSS	6.16901e-17	$cmodel
C1608	I0<3>/I1<1>/QB#4	VSS	6.08254e-17	$cmodel
C1609	VDD#238	VSS	7.02553e-17	$cmodel
C1610	VDD#239	VSS	2.80562e-17	$cmodel
C1611	I0<3>/I1<1>/QB#5	VSS	5.29981e-17	$cmodel
C1612	I0<3>/I1<1>/Q#4	VSS	5.14262e-17	$cmodel
C1613	VDD#236	VSS	2.87131e-17	$cmodel
C1614	I0<3>/I1<1>/Q#6	VSS	5.98945e-17	$cmodel
C1615	I0<3>/I1<2>/Q#4	VSS	5.83319e-17	$cmodel
C1616	VDD#229	VSS	7.18603e-17	$cmodel
C1617	I0<3>/I1<2>/Q#5	VSS	5.14966e-17	$cmodel
C1618	VDD#230	VSS	2.87175e-17	$cmodel
C1619	VDD#227	VSS	2.80432e-17	$cmodel
C1620	I0<3>/I1<2>/QB#4	VSS	5.34662e-17	$cmodel
C1621	I0<3>/I1<2>/QB#6	VSS	6.16901e-17	$cmodel
C1622	I0<3>/I1<0>/QB#4	VSS	6.08254e-17	$cmodel
C1623	VDD#220	VSS	7.02553e-17	$cmodel
C1624	VDD#221	VSS	2.80562e-17	$cmodel
C1625	I0<3>/I1<0>/QB#5	VSS	5.29981e-17	$cmodel
C1626	I0<3>/I1<0>/Q#4	VSS	5.14262e-17	$cmodel
C1627	VDD#218	VSS	2.87131e-17	$cmodel
C1628	I0<3>/I1<0>/Q#6	VSS	5.98945e-17	$cmodel
C1629	I0<2>/I1<7>/Q#4	VSS	5.83319e-17	$cmodel
C1630	VDD#211	VSS	7.18603e-17	$cmodel
C1631	I0<2>/I1<7>/Q#5	VSS	5.14966e-17	$cmodel
C1632	VDD#212	VSS	2.87175e-17	$cmodel
C1633	VDD#209	VSS	2.80432e-17	$cmodel
C1634	I0<2>/I1<7>/QB#4	VSS	5.34662e-17	$cmodel
C1635	I0<2>/I1<7>/QB#6	VSS	6.16901e-17	$cmodel
C1636	I0<2>/I1<5>/QB#4	VSS	6.08254e-17	$cmodel
C1637	VDD#202	VSS	7.02553e-17	$cmodel
C1638	VDD#203	VSS	2.80562e-17	$cmodel
C1639	I0<2>/I1<5>/QB#5	VSS	5.29981e-17	$cmodel
C1640	I0<2>/I1<5>/Q#4	VSS	5.14262e-17	$cmodel
C1641	VDD#200	VSS	2.87131e-17	$cmodel
C1642	I0<2>/I1<5>/Q#6	VSS	5.98945e-17	$cmodel
C1643	I0<2>/I1<6>/Q#4	VSS	5.83319e-17	$cmodel
C1644	VDD#193	VSS	7.18603e-17	$cmodel
C1645	I0<2>/I1<6>/Q#5	VSS	5.14966e-17	$cmodel
C1646	VDD#194	VSS	2.87175e-17	$cmodel
C1647	VDD#191	VSS	2.80432e-17	$cmodel
C1648	I0<2>/I1<6>/QB#4	VSS	5.34662e-17	$cmodel
C1649	I0<2>/I1<6>/QB#6	VSS	6.16901e-17	$cmodel
C1650	I0<2>/I1<3>/QB#4	VSS	6.08254e-17	$cmodel
C1651	VDD#184	VSS	7.02553e-17	$cmodel
C1652	VDD#185	VSS	2.80562e-17	$cmodel
C1653	I0<2>/I1<3>/QB#5	VSS	5.29981e-17	$cmodel
C1654	I0<2>/I1<3>/Q#4	VSS	5.14262e-17	$cmodel
C1655	VDD#182	VSS	2.87131e-17	$cmodel
C1656	I0<2>/I1<3>/Q#6	VSS	5.98945e-17	$cmodel
C1657	I0<2>/I1<4>/Q#4	VSS	5.83319e-17	$cmodel
C1658	VDD#175	VSS	7.18603e-17	$cmodel
C1659	I0<2>/I1<4>/Q#5	VSS	5.14966e-17	$cmodel
C1660	VDD#176	VSS	2.87175e-17	$cmodel
C1661	VDD#173	VSS	2.80432e-17	$cmodel
C1662	I0<2>/I1<4>/QB#4	VSS	5.34662e-17	$cmodel
C1663	I0<2>/I1<4>/QB#6	VSS	6.16901e-17	$cmodel
C1664	I0<2>/I1<1>/QB#4	VSS	6.08254e-17	$cmodel
C1665	VDD#166	VSS	7.02553e-17	$cmodel
C1666	VDD#167	VSS	2.80562e-17	$cmodel
C1667	I0<2>/I1<1>/QB#5	VSS	5.29981e-17	$cmodel
C1668	I0<2>/I1<1>/Q#4	VSS	5.14262e-17	$cmodel
C1669	VDD#164	VSS	2.87131e-17	$cmodel
C1670	I0<2>/I1<1>/Q#6	VSS	5.98945e-17	$cmodel
C1671	I0<2>/I1<2>/Q#4	VSS	5.83319e-17	$cmodel
C1672	VDD#157	VSS	7.18603e-17	$cmodel
C1673	I0<2>/I1<2>/Q#5	VSS	5.14966e-17	$cmodel
C1674	VDD#158	VSS	2.87175e-17	$cmodel
C1675	VDD#155	VSS	2.80432e-17	$cmodel
C1676	I0<2>/I1<2>/QB#4	VSS	5.34662e-17	$cmodel
C1677	I0<2>/I1<2>/QB#6	VSS	6.16901e-17	$cmodel
C1678	I0<2>/I1<0>/QB#4	VSS	6.08254e-17	$cmodel
C1679	VDD#148	VSS	7.02553e-17	$cmodel
C1680	VDD#149	VSS	2.80562e-17	$cmodel
C1681	I0<2>/I1<0>/QB#5	VSS	5.29981e-17	$cmodel
C1682	I0<2>/I1<0>/Q#4	VSS	5.14262e-17	$cmodel
C1683	VDD#146	VSS	2.87131e-17	$cmodel
C1684	I0<2>/I1<0>/Q#6	VSS	5.98945e-17	$cmodel
C1685	I0<1>/I1<7>/Q#4	VSS	5.83319e-17	$cmodel
C1686	VDD#139	VSS	7.18603e-17	$cmodel
C1687	I0<1>/I1<7>/Q#5	VSS	5.14966e-17	$cmodel
C1688	VDD#140	VSS	2.87175e-17	$cmodel
C1689	VDD#137	VSS	2.80432e-17	$cmodel
C1690	I0<1>/I1<7>/QB#4	VSS	5.34662e-17	$cmodel
C1691	I0<1>/I1<7>/QB#6	VSS	6.16901e-17	$cmodel
C1692	I0<1>/I1<5>/QB#4	VSS	6.08254e-17	$cmodel
C1693	VDD#130	VSS	7.02553e-17	$cmodel
C1694	VDD#131	VSS	2.80562e-17	$cmodel
C1695	I0<1>/I1<5>/QB#5	VSS	5.29981e-17	$cmodel
C1696	I0<1>/I1<5>/Q#4	VSS	5.14262e-17	$cmodel
C1697	VDD#128	VSS	2.87131e-17	$cmodel
C1698	I0<1>/I1<5>/Q#6	VSS	5.98945e-17	$cmodel
C1699	I0<1>/I1<6>/Q#4	VSS	5.83319e-17	$cmodel
C1700	VDD#121	VSS	7.18603e-17	$cmodel
C1701	I0<1>/I1<6>/Q#5	VSS	5.14966e-17	$cmodel
C1702	VDD#122	VSS	2.87175e-17	$cmodel
C1703	VDD#119	VSS	2.80432e-17	$cmodel
C1704	I0<1>/I1<6>/QB#4	VSS	5.34662e-17	$cmodel
C1705	I0<1>/I1<6>/QB#6	VSS	6.16901e-17	$cmodel
C1706	I0<1>/I1<3>/QB#4	VSS	6.08254e-17	$cmodel
C1707	VDD#112	VSS	7.02553e-17	$cmodel
C1708	VDD#113	VSS	2.80562e-17	$cmodel
C1709	I0<1>/I1<3>/QB#5	VSS	5.29981e-17	$cmodel
C1710	I0<1>/I1<3>/Q#4	VSS	5.14262e-17	$cmodel
C1711	VDD#110	VSS	2.87131e-17	$cmodel
C1712	I0<1>/I1<3>/Q#6	VSS	5.98945e-17	$cmodel
C1713	I0<1>/I1<4>/Q#4	VSS	5.83319e-17	$cmodel
C1714	VDD#103	VSS	7.18603e-17	$cmodel
C1715	I0<1>/I1<4>/Q#5	VSS	5.14966e-17	$cmodel
C1716	VDD#104	VSS	2.87175e-17	$cmodel
C1717	VDD#101	VSS	2.80432e-17	$cmodel
C1718	I0<1>/I1<4>/QB#4	VSS	5.34662e-17	$cmodel
C1719	I0<1>/I1<4>/QB#6	VSS	6.16901e-17	$cmodel
C1720	I0<1>/I1<1>/QB#4	VSS	6.08254e-17	$cmodel
C1721	VDD#94	VSS	7.02553e-17	$cmodel
C1722	VDD#95	VSS	2.80562e-17	$cmodel
C1723	I0<1>/I1<1>/QB#5	VSS	5.29981e-17	$cmodel
C1724	I0<1>/I1<1>/Q#4	VSS	5.14262e-17	$cmodel
C1725	VDD#92	VSS	2.87131e-17	$cmodel
C1726	I0<1>/I1<1>/Q#6	VSS	5.98945e-17	$cmodel
C1727	I0<1>/I1<2>/Q#4	VSS	5.83319e-17	$cmodel
C1728	VDD#85	VSS	7.18603e-17	$cmodel
C1729	I0<1>/I1<2>/Q#5	VSS	5.14966e-17	$cmodel
C1730	VDD#86	VSS	2.87175e-17	$cmodel
C1731	VDD#83	VSS	2.80432e-17	$cmodel
C1732	I0<1>/I1<2>/QB#4	VSS	5.34662e-17	$cmodel
C1733	I0<1>/I1<2>/QB#6	VSS	6.16901e-17	$cmodel
C1734	I0<1>/I1<0>/QB#4	VSS	6.08254e-17	$cmodel
C1735	VDD#76	VSS	7.02553e-17	$cmodel
C1736	VDD#77	VSS	2.80562e-17	$cmodel
C1737	I0<1>/I1<0>/QB#5	VSS	5.29981e-17	$cmodel
C1738	I0<1>/I1<0>/Q#4	VSS	5.14262e-17	$cmodel
C1739	VDD#74	VSS	2.87131e-17	$cmodel
C1740	I0<1>/I1<0>/Q#6	VSS	5.98945e-17	$cmodel
C1741	I0<0>/I1<7>/Q#4	VSS	5.83319e-17	$cmodel
C1742	VDD#67	VSS	7.18603e-17	$cmodel
C1743	I0<0>/I1<7>/Q#5	VSS	5.14966e-17	$cmodel
C1744	VDD#68	VSS	2.87175e-17	$cmodel
C1745	VDD#65	VSS	2.80432e-17	$cmodel
C1746	I0<0>/I1<7>/QB#4	VSS	5.34662e-17	$cmodel
C1747	I0<0>/I1<7>/QB#6	VSS	6.16901e-17	$cmodel
C1748	I0<0>/I1<5>/QB#4	VSS	6.08254e-17	$cmodel
C1749	VDD#58	VSS	7.02553e-17	$cmodel
C1750	VDD#59	VSS	2.80562e-17	$cmodel
C1751	I0<0>/I1<5>/QB#5	VSS	5.29981e-17	$cmodel
C1752	I0<0>/I1<5>/Q#4	VSS	5.14262e-17	$cmodel
C1753	VDD#56	VSS	2.87131e-17	$cmodel
C1754	I0<0>/I1<5>/Q#6	VSS	5.98945e-17	$cmodel
C1755	I0<0>/I1<6>/Q#4	VSS	5.83319e-17	$cmodel
C1756	VDD#49	VSS	7.18603e-17	$cmodel
C1757	I0<0>/I1<6>/Q#5	VSS	5.14966e-17	$cmodel
C1758	VDD#50	VSS	2.87175e-17	$cmodel
C1759	VDD#47	VSS	2.80432e-17	$cmodel
C1760	I0<0>/I1<6>/QB#4	VSS	5.34662e-17	$cmodel
C1761	I0<0>/I1<6>/QB#6	VSS	6.16901e-17	$cmodel
C1762	I0<0>/I1<3>/QB#4	VSS	6.08254e-17	$cmodel
C1763	VDD#40	VSS	7.02553e-17	$cmodel
C1764	VDD#41	VSS	2.80562e-17	$cmodel
C1765	I0<0>/I1<3>/QB#5	VSS	5.29981e-17	$cmodel
C1766	I0<0>/I1<3>/Q#4	VSS	5.14262e-17	$cmodel
C1767	VDD#38	VSS	2.87131e-17	$cmodel
C1768	I0<0>/I1<3>/Q#6	VSS	5.98945e-17	$cmodel
C1769	I0<0>/I1<4>/Q#4	VSS	5.83319e-17	$cmodel
C1770	VDD#31	VSS	7.18603e-17	$cmodel
C1771	I0<0>/I1<4>/Q#5	VSS	5.14966e-17	$cmodel
C1772	VDD#32	VSS	2.87175e-17	$cmodel
C1773	VDD#29	VSS	2.80432e-17	$cmodel
C1774	I0<0>/I1<4>/QB#4	VSS	5.34662e-17	$cmodel
C1775	I0<0>/I1<4>/QB#6	VSS	6.16901e-17	$cmodel
C1776	I0<0>/I1<1>/QB#4	VSS	6.08254e-17	$cmodel
C1777	VDD#22	VSS	7.02553e-17	$cmodel
C1778	VDD#23	VSS	2.80562e-17	$cmodel
C1779	I0<0>/I1<1>/QB#5	VSS	5.29981e-17	$cmodel
C1780	I0<0>/I1<1>/Q#4	VSS	5.14262e-17	$cmodel
C1781	VDD#20	VSS	2.87131e-17	$cmodel
C1782	I0<0>/I1<1>/Q#6	VSS	5.98945e-17	$cmodel
C1783	I0<0>/I1<2>/Q#4	VSS	5.83319e-17	$cmodel
C1784	VDD#13	VSS	7.18603e-17	$cmodel
C1785	I0<0>/I1<2>/Q#5	VSS	5.14966e-17	$cmodel
C1786	VDD#14	VSS	2.87175e-17	$cmodel
C1787	VDD#11	VSS	2.80432e-17	$cmodel
C1788	I0<0>/I1<2>/QB#4	VSS	5.34662e-17	$cmodel
C1789	I0<0>/I1<2>/QB#6	VSS	6.16901e-17	$cmodel
C1790	I0<0>/I1<0>/QB#4	VSS	6.08254e-17	$cmodel
C1791	VDD#4	VSS	7.02424e-17	$cmodel
C1792	VDD#5	VSS	2.80562e-17	$cmodel
C1793	I0<0>/I1<0>/QB#5	VSS	5.29981e-17	$cmodel
C1794	I0<0>/I1<0>/Q#4	VSS	5.13415e-17	$cmodel
C1795	VDD#2	VSS	2.86766e-17	$cmodel
C1796	I0<0>/I1<0>/Q#6	VSS	5.89683e-17	$cmodel
C1797	WL#259	VSS	2.26072e-16	$cmodel
C1798	WL#260	VSS	2.32109e-16	$cmodel
C1799	WL#261	VSS	2.26072e-16	$cmodel
C1800	WL#262	VSS	2.32109e-16	$cmodel
C1801	WL#263	VSS	2.26072e-16	$cmodel
C1802	WL#264	VSS	2.32109e-16	$cmodel
C1803	WL#265	VSS	2.26072e-16	$cmodel
C1804	WL#266	VSS	2.32109e-16	$cmodel
C1805	WL#267	VSS	2.26072e-16	$cmodel
C1806	WL#268	VSS	2.32109e-16	$cmodel
C1807	WL#269	VSS	2.26072e-16	$cmodel
C1808	WL#270	VSS	2.32109e-16	$cmodel
C1809	WL#271	VSS	2.26072e-16	$cmodel
C1810	WL#272	VSS	2.32109e-16	$cmodel
C1811	WL#273	VSS	2.26072e-16	$cmodel
C1812	WL#274	VSS	2.32109e-16	$cmodel
C1813	WL#275	VSS	2.26072e-16	$cmodel
C1814	WL#276	VSS	2.32109e-16	$cmodel
C1815	WL#277	VSS	2.26072e-16	$cmodel
C1816	WL#278	VSS	2.32109e-16	$cmodel
C1817	WL#279	VSS	2.26072e-16	$cmodel
C1818	WL#280	VSS	2.32109e-16	$cmodel
C1819	WL#281	VSS	2.26072e-16	$cmodel
C1820	WL#282	VSS	2.32109e-16	$cmodel
C1821	WL#283	VSS	2.26072e-16	$cmodel
C1822	WL#284	VSS	2.32109e-16	$cmodel
C1823	WL#285	VSS	2.26072e-16	$cmodel
C1824	WL#286	VSS	2.32109e-16	$cmodel
C1825	WL#287	VSS	2.26072e-16	$cmodel
C1826	WL#288	VSS	2.32109e-16	$cmodel
C1827	WL#289	VSS	2.26072e-16	$cmodel
C1828	WL#290	VSS	2.32109e-16	$cmodel
C1829	WL#291	VSS	2.26072e-16	$cmodel
C1830	WL#292	VSS	2.32109e-16	$cmodel
C1831	WL#293	VSS	2.26072e-16	$cmodel
C1832	WL#294	VSS	2.32109e-16	$cmodel
C1833	WL#295	VSS	2.26072e-16	$cmodel
C1834	WL#296	VSS	2.32109e-16	$cmodel
C1835	WL#297	VSS	2.26072e-16	$cmodel
C1836	WL#298	VSS	2.32109e-16	$cmodel
C1837	WL#299	VSS	2.26072e-16	$cmodel
C1838	WL#300	VSS	2.32109e-16	$cmodel
C1839	WL#301	VSS	2.26072e-16	$cmodel
C1840	WL#302	VSS	2.32109e-16	$cmodel
C1841	WL#303	VSS	2.26072e-16	$cmodel
C1842	WL#304	VSS	2.32109e-16	$cmodel
C1843	WL#305	VSS	2.26072e-16	$cmodel
C1844	WL#306	VSS	2.32109e-16	$cmodel
C1845	WL#307	VSS	2.26072e-16	$cmodel
C1846	WL#308	VSS	2.32109e-16	$cmodel
C1847	WL#309	VSS	2.26072e-16	$cmodel
C1848	WL#310	VSS	2.32109e-16	$cmodel
C1849	WL#311	VSS	2.26072e-16	$cmodel
C1850	WL#312	VSS	2.32109e-16	$cmodel
C1851	WL#313	VSS	2.26072e-16	$cmodel
C1852	WL#314	VSS	2.32109e-16	$cmodel
C1853	WL#315	VSS	2.26072e-16	$cmodel
C1854	WL#316	VSS	2.32109e-16	$cmodel
C1855	WL#317	VSS	2.26072e-16	$cmodel
C1856	WL#318	VSS	2.32109e-16	$cmodel
C1857	WL#319	VSS	2.26072e-16	$cmodel
C1858	WL#320	VSS	2.32109e-16	$cmodel
C1859	WL#321	VSS	2.29037e-16	$cmodel
*
*
.ENDS bit_cell_row_64
*
