*
*
*
*                       LINUX           Thu Nov 23 19:11:37 2023
*
*
*
*  PROGRAM  advgen
*
*  Name           : advgen - Quantus - (64-bit)
*  Version        : 19.1.3-s062
*  Build Date     : Tue Jul 23 02:42:20 PDT 2019
*
*  HSPICE LIBRARY
*
*
*

*
.SUBCKT bit_cell_col_64 VDD VSS WL<0> WL<10> WL<11> WL<12> WL<13> WL<14> WL<15>
+ WL<16> WL<17> WL<18> WL<19> WL<1> WL<20> WL<21> WL<22> WL<23> WL<24> WL<25>
+ WL<26> WL<27> WL<28> WL<29> WL<2> WL<30> WL<31> WL<32> WL<33> WL<34> WL<35>
+ WL<36> WL<37> WL<38> WL<39> WL<3> WL<40> WL<41> WL<42> WL<43> WL<44> WL<45>
+ WL<46> WL<47> WL<48> WL<49> WL<4> WL<50> WL<51> WL<52> WL<53> WL<54> WL<55>
+ WL<56> WL<57> WL<58> WL<59> WL<5> WL<60> WL<61> WL<62> WL<63> WL<6> WL<7>
+ WL<8> WL<9> BL BLB
*
*
*  caps2d version: 10
*
*
*       TRANSISTOR CARDS
*
*
MI0<3>/I0<3>/I0<3>/NM0	I0<3>/I0<3>/I0<3>/Q#6	WL<63>#1	BL#1	VSS#1
+ nmos1v	L=4.5e-08	W=1.2e-07
+ AD=2.87e-14	AS=2.87e-14	PD=7e-07	PS=7e-07
MI0<3>/I0<3>/I0<3>/NM2	I0<3>/I0<3>/I0<3>/Q#6	I0<3>/I0<3>/I0<3>/QB#3	VSS#4
+ VSS#1	nmos1v	L=4.5e-08	W=2.3e-07
+ AD=3.52e-14	AS=3.52e-14	PD=7.9e-07	PS=7.9e-07
MI0<3>/I0<3>/I0<3>/NM1	BLB#1	WL<63>#3	I0<3>/I0<3>/I0<3>/QB#4	VSS#1
+ nmos1v	L=4.5e-08	W=1.2e-07
+ AD=2.75e-14	AS=2.75e-14	PD=6.8e-07	PS=6.8e-07
MI0<3>/I0<3>/I0<3>/NM3	I0<3>/I0<3>/I0<3>/QB#4	I0<3>/I0<3>/I0<3>/Q	VSS#73
+ VSS#1	nmos1v	L=4.5e-08	W=2.3e-07
+ AD=3.75e-14	AS=3.75e-14	PD=8.1e-07	PS=8.1e-07
MI0<3>/I0<3>/I0<1>/NM0	I0<3>/I0<3>/I0<1>/Q#6	WL<61>#1	BL#3	VSS#1
+ nmos1v	L=4.5e-08	W=1.2e-07
+ AD=2.87e-14	AS=2.87e-14	PD=7e-07	PS=7e-07
MI0<3>/I0<3>/I0<1>/NM2	I0<3>/I0<3>/I0<1>/Q#6	I0<3>/I0<3>/I0<1>/QB#3	VSS#6
+ VSS#1	nmos1v	L=4.5e-08	W=2.3e-07
+ AD=3.75e-14	AS=3.75e-14	PD=8.1e-07	PS=8.1e-07
MI0<3>/I0<3>/I0<1>/NM1	BLB#3	WL<61>#3	I0<3>/I0<3>/I0<1>/QB#4	VSS#1
+ nmos1v	L=4.5e-08	W=1.2e-07
+ AD=2.87e-14	AS=2.87e-14	PD=7e-07	PS=7e-07
MI0<3>/I0<3>/I0<1>/NM3	I0<3>/I0<3>/I0<1>/QB#4	I0<3>/I0<3>/I0<1>/Q	VSS#75
+ VSS#1	nmos1v	L=4.5e-08	W=2.3e-07
+ AD=3.75e-14	AS=3.75e-14	PD=8.1e-07	PS=8.1e-07
MI0<3>/I0<3>/I0<2>/NM0	I0<3>/I0<3>/I0<2>/Q#6	WL<62>#1	BL#1	VSS#1
+ nmos1v	L=4.5e-08	W=1.2e-07
+ AD=2.87e-14	AS=2.87e-14	PD=7e-07	PS=7e-07
MI0<3>/I0<3>/I0<2>/NM2	I0<3>/I0<3>/I0<2>/Q#6	I0<3>/I0<3>/I0<2>/QB#2	VSS#6
+ VSS#1	nmos1v	L=4.5e-08	W=2.3e-07
+ AD=3.75e-14	AS=3.75e-14	PD=8.1e-07	PS=8.1e-07
MI0<3>/I0<3>/I0<2>/NM1	BLB#3	WL<62>#4	I0<3>/I0<3>/I0<2>/QB#4	VSS#1
+ nmos1v	L=4.5e-08	W=1.2e-07
+ AD=2.87e-14	AS=2.87e-14	PD=7e-07	PS=7e-07
MI0<3>/I0<3>/I0<2>/NM3	I0<3>/I0<3>/I0<2>/QB#4	I0<3>/I0<3>/I0<2>/Q	VSS#73
+ VSS#1	nmos1v	L=4.5e-08	W=2.3e-07
+ AD=3.75e-14	AS=3.75e-14	PD=8.1e-07	PS=8.1e-07
MI0<3>/I0<3>/I0<0>/NM0	I0<3>/I0<3>/I0<0>/Q#6	WL<60>#1	BL#3	VSS#1
+ nmos1v	L=4.5e-08	W=1.2e-07
+ AD=2.87e-14	AS=2.87e-14	PD=7e-07	PS=7e-07
MI0<3>/I0<3>/I0<0>/NM2	I0<3>/I0<3>/I0<0>/Q#6	I0<3>/I0<3>/I0<0>/QB#2	VSS#8
+ VSS#1	nmos1v	L=4.5e-08	W=2.3e-07
+ AD=3.75e-14	AS=3.75e-14	PD=8.1e-07	PS=8.1e-07
MI0<3>/I0<3>/I0<0>/NM1	BLB#5	WL<60>#4	I0<3>/I0<3>/I0<0>/QB#4	VSS#1
+ nmos1v	L=4.5e-08	W=1.2e-07
+ AD=2.87e-14	AS=2.87e-14	PD=7e-07	PS=7e-07
MI0<3>/I0<3>/I0<0>/NM3	I0<3>/I0<3>/I0<0>/QB#4	I0<3>/I0<3>/I0<0>/Q	VSS#75
+ VSS#1	nmos1v	L=4.5e-08	W=2.3e-07
+ AD=3.75e-14	AS=3.75e-14	PD=8.1e-07	PS=8.1e-07
MI0<3>/I0<2>/I0<3>/NM0	I0<3>/I0<2>/I0<3>/Q#6	WL<59>#1	BL#5	VSS#1
+ nmos1v	L=4.5e-08	W=1.2e-07
+ AD=2.87e-14	AS=2.87e-14	PD=7e-07	PS=7e-07
MI0<3>/I0<2>/I0<3>/NM2	I0<3>/I0<2>/I0<3>/Q#6	I0<3>/I0<2>/I0<3>/QB#3	VSS#8
+ VSS#1	nmos1v	L=4.5e-08	W=2.3e-07
+ AD=3.75e-14	AS=3.75e-14	PD=8.1e-07	PS=8.1e-07
MI0<3>/I0<2>/I0<3>/NM1	BLB#5	WL<59>#3	I0<3>/I0<2>/I0<3>/QB#4	VSS#1
+ nmos1v	L=4.5e-08	W=1.2e-07
+ AD=2.87e-14	AS=2.87e-14	PD=7e-07	PS=7e-07
MI0<3>/I0<2>/I0<3>/NM3	I0<3>/I0<2>/I0<3>/QB#4	I0<3>/I0<2>/I0<3>/Q	VSS#77
+ VSS#1	nmos1v	L=4.5e-08	W=2.3e-07
+ AD=3.75e-14	AS=3.75e-14	PD=8.1e-07	PS=8.1e-07
MI0<3>/I0<2>/I0<1>/NM0	I0<3>/I0<2>/I0<1>/Q#6	WL<57>#1	BL#7	VSS#1
+ nmos1v	L=4.5e-08	W=1.2e-07
+ AD=2.87e-14	AS=2.87e-14	PD=7e-07	PS=7e-07
MI0<3>/I0<2>/I0<1>/NM2	I0<3>/I0<2>/I0<1>/Q#6	I0<3>/I0<2>/I0<1>/QB#3	VSS#10
+ VSS#1	nmos1v	L=4.5e-08	W=2.3e-07
+ AD=3.75e-14	AS=3.75e-14	PD=8.1e-07	PS=8.1e-07
MI0<3>/I0<2>/I0<1>/NM1	BLB#7	WL<57>#3	I0<3>/I0<2>/I0<1>/QB#4	VSS#1
+ nmos1v	L=4.5e-08	W=1.2e-07
+ AD=2.87e-14	AS=2.87e-14	PD=7e-07	PS=7e-07
MI0<3>/I0<2>/I0<1>/NM3	I0<3>/I0<2>/I0<1>/QB#4	I0<3>/I0<2>/I0<1>/Q	VSS#79
+ VSS#1	nmos1v	L=4.5e-08	W=2.3e-07
+ AD=3.75e-14	AS=3.75e-14	PD=8.1e-07	PS=8.1e-07
MI0<3>/I0<2>/I0<2>/NM0	I0<3>/I0<2>/I0<2>/Q#6	WL<58>#1	BL#5	VSS#1
+ nmos1v	L=4.5e-08	W=1.2e-07
+ AD=2.87e-14	AS=2.87e-14	PD=7e-07	PS=7e-07
MI0<3>/I0<2>/I0<2>/NM2	I0<3>/I0<2>/I0<2>/Q#6	I0<3>/I0<2>/I0<2>/QB#2	VSS#10
+ VSS#1	nmos1v	L=4.5e-08	W=2.3e-07
+ AD=3.75e-14	AS=3.75e-14	PD=8.1e-07	PS=8.1e-07
MI0<3>/I0<2>/I0<2>/NM1	BLB#7	WL<58>#4	I0<3>/I0<2>/I0<2>/QB#4	VSS#1
+ nmos1v	L=4.5e-08	W=1.2e-07
+ AD=2.87e-14	AS=2.87e-14	PD=7e-07	PS=7e-07
MI0<3>/I0<2>/I0<2>/NM3	I0<3>/I0<2>/I0<2>/QB#4	I0<3>/I0<2>/I0<2>/Q	VSS#77
+ VSS#1	nmos1v	L=4.5e-08	W=2.3e-07
+ AD=3.75e-14	AS=3.75e-14	PD=8.1e-07	PS=8.1e-07
MI0<3>/I0<2>/I0<0>/NM0	I0<3>/I0<2>/I0<0>/Q#6	WL<56>#1	BL#7	VSS#1
+ nmos1v	L=4.5e-08	W=1.2e-07
+ AD=2.87e-14	AS=2.87e-14	PD=7e-07	PS=7e-07
MI0<3>/I0<2>/I0<0>/NM2	I0<3>/I0<2>/I0<0>/Q#6	I0<3>/I0<2>/I0<0>/QB#2	VSS#12
+ VSS#1	nmos1v	L=4.5e-08	W=2.3e-07
+ AD=3.75e-14	AS=3.75e-14	PD=8.1e-07	PS=8.1e-07
MI0<3>/I0<2>/I0<0>/NM1	BLB#9	WL<56>#4	I0<3>/I0<2>/I0<0>/QB#4	VSS#1
+ nmos1v	L=4.5e-08	W=1.2e-07
+ AD=2.87e-14	AS=2.87e-14	PD=7e-07	PS=7e-07
MI0<3>/I0<2>/I0<0>/NM3	I0<3>/I0<2>/I0<0>/QB#4	I0<3>/I0<2>/I0<0>/Q	VSS#79
+ VSS#1	nmos1v	L=4.5e-08	W=2.3e-07
+ AD=3.75e-14	AS=3.75e-14	PD=8.1e-07	PS=8.1e-07
MI0<3>/I0<1>/I0<3>/NM0	I0<3>/I0<1>/I0<3>/Q#6	WL<55>#1	BL#9	VSS#1
+ nmos1v	L=4.5e-08	W=1.2e-07
+ AD=2.87e-14	AS=2.87e-14	PD=7e-07	PS=7e-07
MI0<3>/I0<1>/I0<3>/NM2	I0<3>/I0<1>/I0<3>/Q#6	I0<3>/I0<1>/I0<3>/QB#3	VSS#12
+ VSS#1	nmos1v	L=4.5e-08	W=2.3e-07
+ AD=3.75e-14	AS=3.75e-14	PD=8.1e-07	PS=8.1e-07
MI0<3>/I0<1>/I0<3>/NM1	BLB#9	WL<55>#3	I0<3>/I0<1>/I0<3>/QB#4	VSS#1
+ nmos1v	L=4.5e-08	W=1.2e-07
+ AD=2.87e-14	AS=2.87e-14	PD=7e-07	PS=7e-07
MI0<3>/I0<1>/I0<3>/NM3	I0<3>/I0<1>/I0<3>/QB#4	I0<3>/I0<1>/I0<3>/Q	VSS#81
+ VSS#1	nmos1v	L=4.5e-08	W=2.3e-07
+ AD=3.75e-14	AS=3.75e-14	PD=8.1e-07	PS=8.1e-07
MI0<3>/I0<1>/I0<1>/NM0	I0<3>/I0<1>/I0<1>/Q#6	WL<53>#1	BL#11	VSS#1
+ nmos1v	L=4.5e-08	W=1.2e-07
+ AD=2.87e-14	AS=2.87e-14	PD=7e-07	PS=7e-07
MI0<3>/I0<1>/I0<1>/NM2	I0<3>/I0<1>/I0<1>/Q#6	I0<3>/I0<1>/I0<1>/QB#3	VSS#14
+ VSS#1	nmos1v	L=4.5e-08	W=2.3e-07
+ AD=3.75e-14	AS=3.75e-14	PD=8.1e-07	PS=8.1e-07
MI0<3>/I0<1>/I0<1>/NM1	BLB#11	WL<53>#3	I0<3>/I0<1>/I0<1>/QB#4	VSS#1
+ nmos1v	L=4.5e-08	W=1.2e-07
+ AD=2.87e-14	AS=2.87e-14	PD=7e-07	PS=7e-07
MI0<3>/I0<1>/I0<1>/NM3	I0<3>/I0<1>/I0<1>/QB#4	I0<3>/I0<1>/I0<1>/Q	VSS#83
+ VSS#1	nmos1v	L=4.5e-08	W=2.3e-07
+ AD=3.75e-14	AS=3.75e-14	PD=8.1e-07	PS=8.1e-07
MI0<3>/I0<1>/I0<2>/NM0	I0<3>/I0<1>/I0<2>/Q#6	WL<54>#1	BL#9	VSS#1
+ nmos1v	L=4.5e-08	W=1.2e-07
+ AD=2.87e-14	AS=2.87e-14	PD=7e-07	PS=7e-07
MI0<3>/I0<1>/I0<2>/NM2	I0<3>/I0<1>/I0<2>/Q#6	I0<3>/I0<1>/I0<2>/QB#2	VSS#14
+ VSS#1	nmos1v	L=4.5e-08	W=2.3e-07
+ AD=3.75e-14	AS=3.75e-14	PD=8.1e-07	PS=8.1e-07
MI0<3>/I0<1>/I0<2>/NM1	BLB#11	WL<54>#4	I0<3>/I0<1>/I0<2>/QB#4	VSS#1
+ nmos1v	L=4.5e-08	W=1.2e-07
+ AD=2.87e-14	AS=2.87e-14	PD=7e-07	PS=7e-07
MI0<3>/I0<1>/I0<2>/NM3	I0<3>/I0<1>/I0<2>/QB#4	I0<3>/I0<1>/I0<2>/Q	VSS#81
+ VSS#1	nmos1v	L=4.5e-08	W=2.3e-07
+ AD=3.75e-14	AS=3.75e-14	PD=8.1e-07	PS=8.1e-07
MI0<3>/I0<1>/I0<0>/NM0	I0<3>/I0<1>/I0<0>/Q#6	WL<52>#1	BL#11	VSS#1
+ nmos1v	L=4.5e-08	W=1.2e-07
+ AD=2.87e-14	AS=2.87e-14	PD=7e-07	PS=7e-07
MI0<3>/I0<1>/I0<0>/NM2	I0<3>/I0<1>/I0<0>/Q#6	I0<3>/I0<1>/I0<0>/QB#2	VSS#16
+ VSS#1	nmos1v	L=4.5e-08	W=2.3e-07
+ AD=3.75e-14	AS=3.75e-14	PD=8.1e-07	PS=8.1e-07
MI0<3>/I0<1>/I0<0>/NM1	BLB#13	WL<52>#4	I0<3>/I0<1>/I0<0>/QB#4	VSS#1
+ nmos1v	L=4.5e-08	W=1.2e-07
+ AD=2.87e-14	AS=2.87e-14	PD=7e-07	PS=7e-07
MI0<3>/I0<1>/I0<0>/NM3	I0<3>/I0<1>/I0<0>/QB#4	I0<3>/I0<1>/I0<0>/Q	VSS#83
+ VSS#1	nmos1v	L=4.5e-08	W=2.3e-07
+ AD=3.75e-14	AS=3.75e-14	PD=8.1e-07	PS=8.1e-07
MI0<3>/I0<0>/I0<3>/NM0	I0<3>/I0<0>/I0<3>/Q#6	WL<51>#1	BL#13	VSS#1
+ nmos1v	L=4.5e-08	W=1.2e-07
+ AD=2.87e-14	AS=2.87e-14	PD=7e-07	PS=7e-07
MI0<3>/I0<0>/I0<3>/NM2	I0<3>/I0<0>/I0<3>/Q#6	I0<3>/I0<0>/I0<3>/QB#3	VSS#16
+ VSS#1	nmos1v	L=4.5e-08	W=2.3e-07
+ AD=3.75e-14	AS=3.75e-14	PD=8.1e-07	PS=8.1e-07
MI0<3>/I0<0>/I0<3>/NM1	BLB#13	WL<51>#3	I0<3>/I0<0>/I0<3>/QB#4	VSS#1
+ nmos1v	L=4.5e-08	W=1.2e-07
+ AD=2.87e-14	AS=2.87e-14	PD=7e-07	PS=7e-07
MI0<3>/I0<0>/I0<3>/NM3	I0<3>/I0<0>/I0<3>/QB#4	I0<3>/I0<0>/I0<3>/Q	VSS#85
+ VSS#1	nmos1v	L=4.5e-08	W=2.3e-07
+ AD=3.75e-14	AS=3.75e-14	PD=8.1e-07	PS=8.1e-07
MI0<3>/I0<0>/I0<1>/NM0	I0<3>/I0<0>/I0<1>/Q#6	WL<49>#1	BL#15	VSS#1
+ nmos1v	L=4.5e-08	W=1.2e-07
+ AD=2.87e-14	AS=2.87e-14	PD=7e-07	PS=7e-07
MI0<3>/I0<0>/I0<1>/NM2	I0<3>/I0<0>/I0<1>/Q#6	I0<3>/I0<0>/I0<1>/QB#3	VSS#18
+ VSS#1	nmos1v	L=4.5e-08	W=2.3e-07
+ AD=3.75e-14	AS=3.75e-14	PD=8.1e-07	PS=8.1e-07
MI0<3>/I0<0>/I0<1>/NM1	BLB#15	WL<49>#3	I0<3>/I0<0>/I0<1>/QB#4	VSS#1
+ nmos1v	L=4.5e-08	W=1.2e-07
+ AD=2.87e-14	AS=2.87e-14	PD=7e-07	PS=7e-07
MI0<3>/I0<0>/I0<1>/NM3	I0<3>/I0<0>/I0<1>/QB#4	I0<3>/I0<0>/I0<1>/Q	VSS#87
+ VSS#1	nmos1v	L=4.5e-08	W=2.3e-07
+ AD=3.75e-14	AS=3.75e-14	PD=8.1e-07	PS=8.1e-07
MI0<3>/I0<0>/I0<2>/NM0	I0<3>/I0<0>/I0<2>/Q#6	WL<50>#1	BL#13	VSS#1
+ nmos1v	L=4.5e-08	W=1.2e-07
+ AD=2.87e-14	AS=2.87e-14	PD=7e-07	PS=7e-07
MI0<3>/I0<0>/I0<2>/NM2	I0<3>/I0<0>/I0<2>/Q#6	I0<3>/I0<0>/I0<2>/QB#2	VSS#18
+ VSS#1	nmos1v	L=4.5e-08	W=2.3e-07
+ AD=3.75e-14	AS=3.75e-14	PD=8.1e-07	PS=8.1e-07
MI0<3>/I0<0>/I0<2>/NM1	BLB#15	WL<50>#4	I0<3>/I0<0>/I0<2>/QB#4	VSS#1
+ nmos1v	L=4.5e-08	W=1.2e-07
+ AD=2.87e-14	AS=2.87e-14	PD=7e-07	PS=7e-07
MI0<3>/I0<0>/I0<2>/NM3	I0<3>/I0<0>/I0<2>/QB#4	I0<3>/I0<0>/I0<2>/Q	VSS#85
+ VSS#1	nmos1v	L=4.5e-08	W=2.3e-07
+ AD=3.75e-14	AS=3.75e-14	PD=8.1e-07	PS=8.1e-07
MI0<3>/I0<0>/I0<0>/NM0	I0<3>/I0<0>/I0<0>/Q#6	WL<48>#1	BL#15	VSS#1
+ nmos1v	L=4.5e-08	W=1.2e-07
+ AD=2.87e-14	AS=2.87e-14	PD=7e-07	PS=7e-07
MI0<3>/I0<0>/I0<0>/NM2	I0<3>/I0<0>/I0<0>/Q#6	I0<3>/I0<0>/I0<0>/QB#2	VSS#20
+ VSS#1	nmos1v	L=4.5e-08	W=2.3e-07
+ AD=3.75e-14	AS=3.75e-14	PD=8.1e-07	PS=8.1e-07
MI0<3>/I0<0>/I0<0>/NM1	BLB#17	WL<48>#4	I0<3>/I0<0>/I0<0>/QB#4	VSS#1
+ nmos1v	L=4.5e-08	W=1.2e-07
+ AD=2.87e-14	AS=2.87e-14	PD=7e-07	PS=7e-07
MI0<3>/I0<0>/I0<0>/NM3	I0<3>/I0<0>/I0<0>/QB#4	I0<3>/I0<0>/I0<0>/Q	VSS#87
+ VSS#1	nmos1v	L=4.5e-08	W=2.3e-07
+ AD=3.75e-14	AS=3.75e-14	PD=8.1e-07	PS=8.1e-07
MI0<2>/I0<3>/I0<3>/NM0	I0<2>/I0<3>/I0<3>/Q#6	WL<47>#1	BL#17	VSS#1
+ nmos1v	L=4.5e-08	W=1.2e-07
+ AD=2.87e-14	AS=2.87e-14	PD=7e-07	PS=7e-07
MI0<2>/I0<3>/I0<3>/NM2	I0<2>/I0<3>/I0<3>/Q#6	I0<2>/I0<3>/I0<3>/QB#3	VSS#20
+ VSS#1	nmos1v	L=4.5e-08	W=2.3e-07
+ AD=3.75e-14	AS=3.75e-14	PD=8.1e-07	PS=8.1e-07
MI0<2>/I0<3>/I0<3>/NM1	BLB#17	WL<47>#3	I0<2>/I0<3>/I0<3>/QB#4	VSS#1
+ nmos1v	L=4.5e-08	W=1.2e-07
+ AD=2.87e-14	AS=2.87e-14	PD=7e-07	PS=7e-07
MI0<2>/I0<3>/I0<3>/NM3	I0<2>/I0<3>/I0<3>/QB#4	I0<2>/I0<3>/I0<3>/Q	VSS#89
+ VSS#1	nmos1v	L=4.5e-08	W=2.3e-07
+ AD=3.75e-14	AS=3.75e-14	PD=8.1e-07	PS=8.1e-07
MI0<2>/I0<3>/I0<1>/NM0	I0<2>/I0<3>/I0<1>/Q#6	WL<45>#1	BL#19	VSS#1
+ nmos1v	L=4.5e-08	W=1.2e-07
+ AD=2.87e-14	AS=2.87e-14	PD=7e-07	PS=7e-07
MI0<2>/I0<3>/I0<1>/NM2	I0<2>/I0<3>/I0<1>/Q#6	I0<2>/I0<3>/I0<1>/QB#3	VSS#22
+ VSS#1	nmos1v	L=4.5e-08	W=2.3e-07
+ AD=3.75e-14	AS=3.75e-14	PD=8.1e-07	PS=8.1e-07
MI0<2>/I0<3>/I0<1>/NM1	BLB#19	WL<45>#3	I0<2>/I0<3>/I0<1>/QB#4	VSS#1
+ nmos1v	L=4.5e-08	W=1.2e-07
+ AD=2.87e-14	AS=2.87e-14	PD=7e-07	PS=7e-07
MI0<2>/I0<3>/I0<1>/NM3	I0<2>/I0<3>/I0<1>/QB#4	I0<2>/I0<3>/I0<1>/Q	VSS#91
+ VSS#1	nmos1v	L=4.5e-08	W=2.3e-07
+ AD=3.75e-14	AS=3.75e-14	PD=8.1e-07	PS=8.1e-07
MI0<2>/I0<3>/I0<2>/NM0	I0<2>/I0<3>/I0<2>/Q#6	WL<46>#1	BL#17	VSS#1
+ nmos1v	L=4.5e-08	W=1.2e-07
+ AD=2.87e-14	AS=2.87e-14	PD=7e-07	PS=7e-07
MI0<2>/I0<3>/I0<2>/NM2	I0<2>/I0<3>/I0<2>/Q#6	I0<2>/I0<3>/I0<2>/QB#2	VSS#22
+ VSS#1	nmos1v	L=4.5e-08	W=2.3e-07
+ AD=3.75e-14	AS=3.75e-14	PD=8.1e-07	PS=8.1e-07
MI0<2>/I0<3>/I0<2>/NM1	BLB#19	WL<46>#4	I0<2>/I0<3>/I0<2>/QB#4	VSS#1
+ nmos1v	L=4.5e-08	W=1.2e-07
+ AD=2.87e-14	AS=2.87e-14	PD=7e-07	PS=7e-07
MI0<2>/I0<3>/I0<2>/NM3	I0<2>/I0<3>/I0<2>/QB#4	I0<2>/I0<3>/I0<2>/Q	VSS#89
+ VSS#1	nmos1v	L=4.5e-08	W=2.3e-07
+ AD=3.75e-14	AS=3.75e-14	PD=8.1e-07	PS=8.1e-07
MI0<2>/I0<3>/I0<0>/NM0	I0<2>/I0<3>/I0<0>/Q#6	WL<44>#1	BL#19	VSS#1
+ nmos1v	L=4.5e-08	W=1.2e-07
+ AD=2.87e-14	AS=2.87e-14	PD=7e-07	PS=7e-07
MI0<2>/I0<3>/I0<0>/NM2	I0<2>/I0<3>/I0<0>/Q#6	I0<2>/I0<3>/I0<0>/QB#2	VSS#24
+ VSS#1	nmos1v	L=4.5e-08	W=2.3e-07
+ AD=3.75e-14	AS=3.75e-14	PD=8.1e-07	PS=8.1e-07
MI0<2>/I0<3>/I0<0>/NM1	BLB#21	WL<44>#4	I0<2>/I0<3>/I0<0>/QB#4	VSS#1
+ nmos1v	L=4.5e-08	W=1.2e-07
+ AD=2.87e-14	AS=2.87e-14	PD=7e-07	PS=7e-07
MI0<2>/I0<3>/I0<0>/NM3	I0<2>/I0<3>/I0<0>/QB#4	I0<2>/I0<3>/I0<0>/Q	VSS#91
+ VSS#1	nmos1v	L=4.5e-08	W=2.3e-07
+ AD=3.75e-14	AS=3.75e-14	PD=8.1e-07	PS=8.1e-07
MI0<2>/I0<2>/I0<3>/NM0	I0<2>/I0<2>/I0<3>/Q#6	WL<43>#1	BL#21	VSS#1
+ nmos1v	L=4.5e-08	W=1.2e-07
+ AD=2.87e-14	AS=2.87e-14	PD=7e-07	PS=7e-07
MI0<2>/I0<2>/I0<3>/NM2	I0<2>/I0<2>/I0<3>/Q#6	I0<2>/I0<2>/I0<3>/QB#3	VSS#24
+ VSS#1	nmos1v	L=4.5e-08	W=2.3e-07
+ AD=3.75e-14	AS=3.75e-14	PD=8.1e-07	PS=8.1e-07
MI0<2>/I0<2>/I0<3>/NM1	BLB#21	WL<43>#3	I0<2>/I0<2>/I0<3>/QB#4	VSS#1
+ nmos1v	L=4.5e-08	W=1.2e-07
+ AD=2.87e-14	AS=2.87e-14	PD=7e-07	PS=7e-07
MI0<2>/I0<2>/I0<3>/NM3	I0<2>/I0<2>/I0<3>/QB#4	I0<2>/I0<2>/I0<3>/Q	VSS#93
+ VSS#1	nmos1v	L=4.5e-08	W=2.3e-07
+ AD=3.75e-14	AS=3.75e-14	PD=8.1e-07	PS=8.1e-07
MI0<2>/I0<2>/I0<1>/NM0	I0<2>/I0<2>/I0<1>/Q#6	WL<41>#1	BL#23	VSS#1
+ nmos1v	L=4.5e-08	W=1.2e-07
+ AD=2.87e-14	AS=2.87e-14	PD=7e-07	PS=7e-07
MI0<2>/I0<2>/I0<1>/NM2	I0<2>/I0<2>/I0<1>/Q#6	I0<2>/I0<2>/I0<1>/QB#3	VSS#26
+ VSS#1	nmos1v	L=4.5e-08	W=2.3e-07
+ AD=3.75e-14	AS=3.75e-14	PD=8.1e-07	PS=8.1e-07
MI0<2>/I0<2>/I0<1>/NM1	BLB#23	WL<41>#3	I0<2>/I0<2>/I0<1>/QB#4	VSS#1
+ nmos1v	L=4.5e-08	W=1.2e-07
+ AD=2.87e-14	AS=2.87e-14	PD=7e-07	PS=7e-07
MI0<2>/I0<2>/I0<1>/NM3	I0<2>/I0<2>/I0<1>/QB#4	I0<2>/I0<2>/I0<1>/Q	VSS#95
+ VSS#1	nmos1v	L=4.5e-08	W=2.3e-07
+ AD=3.75e-14	AS=3.75e-14	PD=8.1e-07	PS=8.1e-07
MI0<2>/I0<2>/I0<2>/NM0	I0<2>/I0<2>/I0<2>/Q#6	WL<42>#1	BL#21	VSS#1
+ nmos1v	L=4.5e-08	W=1.2e-07
+ AD=2.87e-14	AS=2.87e-14	PD=7e-07	PS=7e-07
MI0<2>/I0<2>/I0<2>/NM2	I0<2>/I0<2>/I0<2>/Q#6	I0<2>/I0<2>/I0<2>/QB#2	VSS#26
+ VSS#1	nmos1v	L=4.5e-08	W=2.3e-07
+ AD=3.75e-14	AS=3.75e-14	PD=8.1e-07	PS=8.1e-07
MI0<2>/I0<2>/I0<2>/NM1	BLB#23	WL<42>#4	I0<2>/I0<2>/I0<2>/QB#4	VSS#1
+ nmos1v	L=4.5e-08	W=1.2e-07
+ AD=2.87e-14	AS=2.87e-14	PD=7e-07	PS=7e-07
MI0<2>/I0<2>/I0<2>/NM3	I0<2>/I0<2>/I0<2>/QB#4	I0<2>/I0<2>/I0<2>/Q	VSS#93
+ VSS#1	nmos1v	L=4.5e-08	W=2.3e-07
+ AD=3.75e-14	AS=3.75e-14	PD=8.1e-07	PS=8.1e-07
MI0<2>/I0<2>/I0<0>/NM0	I0<2>/I0<2>/I0<0>/Q#6	WL<40>#1	BL#23	VSS#1
+ nmos1v	L=4.5e-08	W=1.2e-07
+ AD=2.87e-14	AS=2.87e-14	PD=7e-07	PS=7e-07
MI0<2>/I0<2>/I0<0>/NM2	I0<2>/I0<2>/I0<0>/Q#6	I0<2>/I0<2>/I0<0>/QB#2	VSS#28
+ VSS#1	nmos1v	L=4.5e-08	W=2.3e-07
+ AD=3.75e-14	AS=3.75e-14	PD=8.1e-07	PS=8.1e-07
MI0<2>/I0<2>/I0<0>/NM1	BLB#25	WL<40>#4	I0<2>/I0<2>/I0<0>/QB#4	VSS#1
+ nmos1v	L=4.5e-08	W=1.2e-07
+ AD=2.87e-14	AS=2.87e-14	PD=7e-07	PS=7e-07
MI0<2>/I0<2>/I0<0>/NM3	I0<2>/I0<2>/I0<0>/QB#4	I0<2>/I0<2>/I0<0>/Q	VSS#95
+ VSS#1	nmos1v	L=4.5e-08	W=2.3e-07
+ AD=3.75e-14	AS=3.75e-14	PD=8.1e-07	PS=8.1e-07
MI0<2>/I0<1>/I0<3>/NM0	I0<2>/I0<1>/I0<3>/Q#6	WL<39>#1	BL#25	VSS#1
+ nmos1v	L=4.5e-08	W=1.2e-07
+ AD=2.87e-14	AS=2.87e-14	PD=7e-07	PS=7e-07
MI0<2>/I0<1>/I0<3>/NM2	I0<2>/I0<1>/I0<3>/Q#6	I0<2>/I0<1>/I0<3>/QB#3	VSS#28
+ VSS#1	nmos1v	L=4.5e-08	W=2.3e-07
+ AD=3.75e-14	AS=3.75e-14	PD=8.1e-07	PS=8.1e-07
MI0<2>/I0<1>/I0<3>/NM1	BLB#25	WL<39>#3	I0<2>/I0<1>/I0<3>/QB#4	VSS#1
+ nmos1v	L=4.5e-08	W=1.2e-07
+ AD=2.87e-14	AS=2.87e-14	PD=7e-07	PS=7e-07
MI0<2>/I0<1>/I0<3>/NM3	I0<2>/I0<1>/I0<3>/QB#4	I0<2>/I0<1>/I0<3>/Q	VSS#97
+ VSS#1	nmos1v	L=4.5e-08	W=2.3e-07
+ AD=3.75e-14	AS=3.75e-14	PD=8.1e-07	PS=8.1e-07
MI0<2>/I0<1>/I0<1>/NM0	I0<2>/I0<1>/I0<1>/Q#6	WL<37>#1	BL#27	VSS#1
+ nmos1v	L=4.5e-08	W=1.2e-07
+ AD=2.87e-14	AS=2.87e-14	PD=7e-07	PS=7e-07
MI0<2>/I0<1>/I0<1>/NM2	I0<2>/I0<1>/I0<1>/Q#6	I0<2>/I0<1>/I0<1>/QB#3	VSS#30
+ VSS#1	nmos1v	L=4.5e-08	W=2.3e-07
+ AD=3.75e-14	AS=3.75e-14	PD=8.1e-07	PS=8.1e-07
MI0<2>/I0<1>/I0<1>/NM1	BLB#27	WL<37>#3	I0<2>/I0<1>/I0<1>/QB#4	VSS#1
+ nmos1v	L=4.5e-08	W=1.2e-07
+ AD=2.87e-14	AS=2.87e-14	PD=7e-07	PS=7e-07
MI0<2>/I0<1>/I0<1>/NM3	I0<2>/I0<1>/I0<1>/QB#4	I0<2>/I0<1>/I0<1>/Q	VSS#99
+ VSS#1	nmos1v	L=4.5e-08	W=2.3e-07
+ AD=3.75e-14	AS=3.75e-14	PD=8.1e-07	PS=8.1e-07
MI0<2>/I0<1>/I0<2>/NM0	I0<2>/I0<1>/I0<2>/Q#6	WL<38>#1	BL#25	VSS#1
+ nmos1v	L=4.5e-08	W=1.2e-07
+ AD=2.87e-14	AS=2.87e-14	PD=7e-07	PS=7e-07
MI0<2>/I0<1>/I0<2>/NM2	I0<2>/I0<1>/I0<2>/Q#6	I0<2>/I0<1>/I0<2>/QB#2	VSS#30
+ VSS#1	nmos1v	L=4.5e-08	W=2.3e-07
+ AD=3.75e-14	AS=3.75e-14	PD=8.1e-07	PS=8.1e-07
MI0<2>/I0<1>/I0<2>/NM1	BLB#27	WL<38>#4	I0<2>/I0<1>/I0<2>/QB#4	VSS#1
+ nmos1v	L=4.5e-08	W=1.2e-07
+ AD=2.87e-14	AS=2.87e-14	PD=7e-07	PS=7e-07
MI0<2>/I0<1>/I0<2>/NM3	I0<2>/I0<1>/I0<2>/QB#4	I0<2>/I0<1>/I0<2>/Q	VSS#97
+ VSS#1	nmos1v	L=4.5e-08	W=2.3e-07
+ AD=3.75e-14	AS=3.75e-14	PD=8.1e-07	PS=8.1e-07
MI0<2>/I0<1>/I0<0>/NM0	I0<2>/I0<1>/I0<0>/Q#6	WL<36>#1	BL#27	VSS#1
+ nmos1v	L=4.5e-08	W=1.2e-07
+ AD=2.87e-14	AS=2.87e-14	PD=7e-07	PS=7e-07
MI0<2>/I0<1>/I0<0>/NM2	I0<2>/I0<1>/I0<0>/Q#6	I0<2>/I0<1>/I0<0>/QB#2	VSS#32
+ VSS#1	nmos1v	L=4.5e-08	W=2.3e-07
+ AD=3.75e-14	AS=3.75e-14	PD=8.1e-07	PS=8.1e-07
MI0<2>/I0<1>/I0<0>/NM1	BLB#29	WL<36>#4	I0<2>/I0<1>/I0<0>/QB#4	VSS#1
+ nmos1v	L=4.5e-08	W=1.2e-07
+ AD=2.87e-14	AS=2.87e-14	PD=7e-07	PS=7e-07
MI0<2>/I0<1>/I0<0>/NM3	I0<2>/I0<1>/I0<0>/QB#4	I0<2>/I0<1>/I0<0>/Q	VSS#99
+ VSS#1	nmos1v	L=4.5e-08	W=2.3e-07
+ AD=3.75e-14	AS=3.75e-14	PD=8.1e-07	PS=8.1e-07
MI0<2>/I0<0>/I0<3>/NM0	I0<2>/I0<0>/I0<3>/Q#6	WL<35>#1	BL#29	VSS#1
+ nmos1v	L=4.5e-08	W=1.2e-07
+ AD=2.87e-14	AS=2.87e-14	PD=7e-07	PS=7e-07
MI0<2>/I0<0>/I0<3>/NM2	I0<2>/I0<0>/I0<3>/Q#6	I0<2>/I0<0>/I0<3>/QB#3	VSS#32
+ VSS#1	nmos1v	L=4.5e-08	W=2.3e-07
+ AD=3.75e-14	AS=3.75e-14	PD=8.1e-07	PS=8.1e-07
MI0<2>/I0<0>/I0<3>/NM1	BLB#29	WL<35>#3	I0<2>/I0<0>/I0<3>/QB#4	VSS#1
+ nmos1v	L=4.5e-08	W=1.2e-07
+ AD=2.87e-14	AS=2.87e-14	PD=7e-07	PS=7e-07
MI0<2>/I0<0>/I0<3>/NM3	I0<2>/I0<0>/I0<3>/QB#4	I0<2>/I0<0>/I0<3>/Q	VSS#101
+ VSS#1	nmos1v	L=4.5e-08	W=2.3e-07
+ AD=3.75e-14	AS=3.75e-14	PD=8.1e-07	PS=8.1e-07
MI0<2>/I0<0>/I0<1>/NM0	I0<2>/I0<0>/I0<1>/Q#6	WL<33>#1	BL#31	VSS#1
+ nmos1v	L=4.5e-08	W=1.2e-07
+ AD=2.87e-14	AS=2.87e-14	PD=7e-07	PS=7e-07
MI0<2>/I0<0>/I0<1>/NM2	I0<2>/I0<0>/I0<1>/Q#6	I0<2>/I0<0>/I0<1>/QB#3	VSS#34
+ VSS#1	nmos1v	L=4.5e-08	W=2.3e-07
+ AD=3.75e-14	AS=3.75e-14	PD=8.1e-07	PS=8.1e-07
MI0<2>/I0<0>/I0<1>/NM1	BLB#31	WL<33>#3	I0<2>/I0<0>/I0<1>/QB#4	VSS#1
+ nmos1v	L=4.5e-08	W=1.2e-07
+ AD=2.87e-14	AS=2.87e-14	PD=7e-07	PS=7e-07
MI0<2>/I0<0>/I0<1>/NM3	I0<2>/I0<0>/I0<1>/QB#4	I0<2>/I0<0>/I0<1>/Q	VSS#103
+ VSS#1	nmos1v	L=4.5e-08	W=2.3e-07
+ AD=3.75e-14	AS=3.75e-14	PD=8.1e-07	PS=8.1e-07
MI0<2>/I0<0>/I0<2>/NM0	I0<2>/I0<0>/I0<2>/Q#6	WL<34>#1	BL#29	VSS#1
+ nmos1v	L=4.5e-08	W=1.2e-07
+ AD=2.87e-14	AS=2.87e-14	PD=7e-07	PS=7e-07
MI0<2>/I0<0>/I0<2>/NM2	I0<2>/I0<0>/I0<2>/Q#6	I0<2>/I0<0>/I0<2>/QB#2	VSS#34
+ VSS#1	nmos1v	L=4.5e-08	W=2.3e-07
+ AD=3.75e-14	AS=3.75e-14	PD=8.1e-07	PS=8.1e-07
MI0<2>/I0<0>/I0<2>/NM1	BLB#31	WL<34>#4	I0<2>/I0<0>/I0<2>/QB#4	VSS#1
+ nmos1v	L=4.5e-08	W=1.2e-07
+ AD=2.87e-14	AS=2.87e-14	PD=7e-07	PS=7e-07
MI0<2>/I0<0>/I0<2>/NM3	I0<2>/I0<0>/I0<2>/QB#4	I0<2>/I0<0>/I0<2>/Q	VSS#101
+ VSS#1	nmos1v	L=4.5e-08	W=2.3e-07
+ AD=3.75e-14	AS=3.75e-14	PD=8.1e-07	PS=8.1e-07
MI0<2>/I0<0>/I0<0>/NM0	I0<2>/I0<0>/I0<0>/Q#6	WL<32>#1	BL#31	VSS#1
+ nmos1v	L=4.5e-08	W=1.2e-07
+ AD=2.87e-14	AS=2.87e-14	PD=7e-07	PS=7e-07
MI0<2>/I0<0>/I0<0>/NM2	I0<2>/I0<0>/I0<0>/Q#6	I0<2>/I0<0>/I0<0>/QB#2	VSS#36
+ VSS#1	nmos1v	L=4.5e-08	W=2.3e-07
+ AD=3.75e-14	AS=3.75e-14	PD=8.1e-07	PS=8.1e-07
MI0<2>/I0<0>/I0<0>/NM1	BLB#33	WL<32>#4	I0<2>/I0<0>/I0<0>/QB#4	VSS#1
+ nmos1v	L=4.5e-08	W=1.2e-07
+ AD=2.87e-14	AS=2.87e-14	PD=7e-07	PS=7e-07
MI0<2>/I0<0>/I0<0>/NM3	I0<2>/I0<0>/I0<0>/QB#4	I0<2>/I0<0>/I0<0>/Q	VSS#103
+ VSS#1	nmos1v	L=4.5e-08	W=2.3e-07
+ AD=3.75e-14	AS=3.75e-14	PD=8.1e-07	PS=8.1e-07
MI0<1>/I0<3>/I0<3>/NM0	I0<1>/I0<3>/I0<3>/Q#6	WL<31>#1	BL#33	VSS#1
+ nmos1v	L=4.5e-08	W=1.2e-07
+ AD=2.87e-14	AS=2.87e-14	PD=7e-07	PS=7e-07
MI0<1>/I0<3>/I0<3>/NM2	I0<1>/I0<3>/I0<3>/Q#6	I0<1>/I0<3>/I0<3>/QB#3	VSS#36
+ VSS#1	nmos1v	L=4.5e-08	W=2.3e-07
+ AD=3.75e-14	AS=3.75e-14	PD=8.1e-07	PS=8.1e-07
MI0<1>/I0<3>/I0<3>/NM1	BLB#33	WL<31>#3	I0<1>/I0<3>/I0<3>/QB#4	VSS#1
+ nmos1v	L=4.5e-08	W=1.2e-07
+ AD=2.87e-14	AS=2.87e-14	PD=7e-07	PS=7e-07
MI0<1>/I0<3>/I0<3>/NM3	I0<1>/I0<3>/I0<3>/QB#4	I0<1>/I0<3>/I0<3>/Q	VSS#105
+ VSS#1	nmos1v	L=4.5e-08	W=2.3e-07
+ AD=3.75e-14	AS=3.75e-14	PD=8.1e-07	PS=8.1e-07
MI0<1>/I0<3>/I0<1>/NM0	I0<1>/I0<3>/I0<1>/Q#6	WL<29>#1	BL#35	VSS#1
+ nmos1v	L=4.5e-08	W=1.2e-07
+ AD=2.87e-14	AS=2.87e-14	PD=7e-07	PS=7e-07
MI0<1>/I0<3>/I0<1>/NM2	I0<1>/I0<3>/I0<1>/Q#6	I0<1>/I0<3>/I0<1>/QB#3	VSS#38
+ VSS#1	nmos1v	L=4.5e-08	W=2.3e-07
+ AD=3.75e-14	AS=3.75e-14	PD=8.1e-07	PS=8.1e-07
MI0<1>/I0<3>/I0<1>/NM1	BLB#35	WL<29>#3	I0<1>/I0<3>/I0<1>/QB#4	VSS#1
+ nmos1v	L=4.5e-08	W=1.2e-07
+ AD=2.87e-14	AS=2.87e-14	PD=7e-07	PS=7e-07
MI0<1>/I0<3>/I0<1>/NM3	I0<1>/I0<3>/I0<1>/QB#4	I0<1>/I0<3>/I0<1>/Q	VSS#107
+ VSS#1	nmos1v	L=4.5e-08	W=2.3e-07
+ AD=3.75e-14	AS=3.75e-14	PD=8.1e-07	PS=8.1e-07
MI0<1>/I0<3>/I0<2>/NM0	I0<1>/I0<3>/I0<2>/Q#6	WL<30>#1	BL#33	VSS#1
+ nmos1v	L=4.5e-08	W=1.2e-07
+ AD=2.87e-14	AS=2.87e-14	PD=7e-07	PS=7e-07
MI0<1>/I0<3>/I0<2>/NM2	I0<1>/I0<3>/I0<2>/Q#6	I0<1>/I0<3>/I0<2>/QB#2	VSS#38
+ VSS#1	nmos1v	L=4.5e-08	W=2.3e-07
+ AD=3.75e-14	AS=3.75e-14	PD=8.1e-07	PS=8.1e-07
MI0<1>/I0<3>/I0<2>/NM1	BLB#35	WL<30>#4	I0<1>/I0<3>/I0<2>/QB#4	VSS#1
+ nmos1v	L=4.5e-08	W=1.2e-07
+ AD=2.87e-14	AS=2.87e-14	PD=7e-07	PS=7e-07
MI0<1>/I0<3>/I0<2>/NM3	I0<1>/I0<3>/I0<2>/QB#4	I0<1>/I0<3>/I0<2>/Q	VSS#105
+ VSS#1	nmos1v	L=4.5e-08	W=2.3e-07
+ AD=3.75e-14	AS=3.75e-14	PD=8.1e-07	PS=8.1e-07
MI0<1>/I0<3>/I0<0>/NM0	I0<1>/I0<3>/I0<0>/Q#6	WL<28>#1	BL#35	VSS#1
+ nmos1v	L=4.5e-08	W=1.2e-07
+ AD=2.87e-14	AS=2.87e-14	PD=7e-07	PS=7e-07
MI0<1>/I0<3>/I0<0>/NM2	I0<1>/I0<3>/I0<0>/Q#6	I0<1>/I0<3>/I0<0>/QB#2	VSS#40
+ VSS#1	nmos1v	L=4.5e-08	W=2.3e-07
+ AD=3.75e-14	AS=3.75e-14	PD=8.1e-07	PS=8.1e-07
MI0<1>/I0<3>/I0<0>/NM1	BLB#37	WL<28>#4	I0<1>/I0<3>/I0<0>/QB#4	VSS#1
+ nmos1v	L=4.5e-08	W=1.2e-07
+ AD=2.87e-14	AS=2.87e-14	PD=7e-07	PS=7e-07
MI0<1>/I0<3>/I0<0>/NM3	I0<1>/I0<3>/I0<0>/QB#4	I0<1>/I0<3>/I0<0>/Q	VSS#107
+ VSS#1	nmos1v	L=4.5e-08	W=2.3e-07
+ AD=3.75e-14	AS=3.75e-14	PD=8.1e-07	PS=8.1e-07
MI0<1>/I0<2>/I0<3>/NM0	I0<1>/I0<2>/I0<3>/Q#6	WL<27>#1	BL#37	VSS#1
+ nmos1v	L=4.5e-08	W=1.2e-07
+ AD=2.87e-14	AS=2.87e-14	PD=7e-07	PS=7e-07
MI0<1>/I0<2>/I0<3>/NM2	I0<1>/I0<2>/I0<3>/Q#6	I0<1>/I0<2>/I0<3>/QB#3	VSS#40
+ VSS#1	nmos1v	L=4.5e-08	W=2.3e-07
+ AD=3.75e-14	AS=3.75e-14	PD=8.1e-07	PS=8.1e-07
MI0<1>/I0<2>/I0<3>/NM1	BLB#37	WL<27>#3	I0<1>/I0<2>/I0<3>/QB#4	VSS#1
+ nmos1v	L=4.5e-08	W=1.2e-07
+ AD=2.87e-14	AS=2.87e-14	PD=7e-07	PS=7e-07
MI0<1>/I0<2>/I0<3>/NM3	I0<1>/I0<2>/I0<3>/QB#4	I0<1>/I0<2>/I0<3>/Q	VSS#109
+ VSS#1	nmos1v	L=4.5e-08	W=2.3e-07
+ AD=3.75e-14	AS=3.75e-14	PD=8.1e-07	PS=8.1e-07
MI0<1>/I0<2>/I0<1>/NM0	I0<1>/I0<2>/I0<1>/Q#6	WL<25>#1	BL#39	VSS#1
+ nmos1v	L=4.5e-08	W=1.2e-07
+ AD=2.87e-14	AS=2.87e-14	PD=7e-07	PS=7e-07
MI0<1>/I0<2>/I0<1>/NM2	I0<1>/I0<2>/I0<1>/Q#6	I0<1>/I0<2>/I0<1>/QB#3	VSS#42
+ VSS#1	nmos1v	L=4.5e-08	W=2.3e-07
+ AD=3.75e-14	AS=3.75e-14	PD=8.1e-07	PS=8.1e-07
MI0<1>/I0<2>/I0<1>/NM1	BLB#39	WL<25>#3	I0<1>/I0<2>/I0<1>/QB#4	VSS#1
+ nmos1v	L=4.5e-08	W=1.2e-07
+ AD=2.87e-14	AS=2.87e-14	PD=7e-07	PS=7e-07
MI0<1>/I0<2>/I0<1>/NM3	I0<1>/I0<2>/I0<1>/QB#4	I0<1>/I0<2>/I0<1>/Q	VSS#111
+ VSS#1	nmos1v	L=4.5e-08	W=2.3e-07
+ AD=3.75e-14	AS=3.75e-14	PD=8.1e-07	PS=8.1e-07
MI0<1>/I0<2>/I0<2>/NM0	I0<1>/I0<2>/I0<2>/Q#6	WL<26>#1	BL#37	VSS#1
+ nmos1v	L=4.5e-08	W=1.2e-07
+ AD=2.87e-14	AS=2.87e-14	PD=7e-07	PS=7e-07
MI0<1>/I0<2>/I0<2>/NM2	I0<1>/I0<2>/I0<2>/Q#6	I0<1>/I0<2>/I0<2>/QB#2	VSS#42
+ VSS#1	nmos1v	L=4.5e-08	W=2.3e-07
+ AD=3.75e-14	AS=3.75e-14	PD=8.1e-07	PS=8.1e-07
MI0<1>/I0<2>/I0<2>/NM1	BLB#39	WL<26>#4	I0<1>/I0<2>/I0<2>/QB#4	VSS#1
+ nmos1v	L=4.5e-08	W=1.2e-07
+ AD=2.87e-14	AS=2.87e-14	PD=7e-07	PS=7e-07
MI0<1>/I0<2>/I0<2>/NM3	I0<1>/I0<2>/I0<2>/QB#4	I0<1>/I0<2>/I0<2>/Q	VSS#109
+ VSS#1	nmos1v	L=4.5e-08	W=2.3e-07
+ AD=3.75e-14	AS=3.75e-14	PD=8.1e-07	PS=8.1e-07
MI0<1>/I0<2>/I0<0>/NM0	I0<1>/I0<2>/I0<0>/Q#6	WL<24>#1	BL#39	VSS#1
+ nmos1v	L=4.5e-08	W=1.2e-07
+ AD=2.87e-14	AS=2.87e-14	PD=7e-07	PS=7e-07
MI0<1>/I0<2>/I0<0>/NM2	I0<1>/I0<2>/I0<0>/Q#6	I0<1>/I0<2>/I0<0>/QB#2	VSS#44
+ VSS#1	nmos1v	L=4.5e-08	W=2.3e-07
+ AD=3.75e-14	AS=3.75e-14	PD=8.1e-07	PS=8.1e-07
MI0<1>/I0<2>/I0<0>/NM1	BLB#41	WL<24>#4	I0<1>/I0<2>/I0<0>/QB#4	VSS#1
+ nmos1v	L=4.5e-08	W=1.2e-07
+ AD=2.87e-14	AS=2.87e-14	PD=7e-07	PS=7e-07
MI0<1>/I0<2>/I0<0>/NM3	I0<1>/I0<2>/I0<0>/QB#4	I0<1>/I0<2>/I0<0>/Q	VSS#111
+ VSS#1	nmos1v	L=4.5e-08	W=2.3e-07
+ AD=3.75e-14	AS=3.75e-14	PD=8.1e-07	PS=8.1e-07
MI0<1>/I0<1>/I0<3>/NM0	I0<1>/I0<1>/I0<3>/Q#6	WL<23>#1	BL#41	VSS#1
+ nmos1v	L=4.5e-08	W=1.2e-07
+ AD=2.87e-14	AS=2.87e-14	PD=7e-07	PS=7e-07
MI0<1>/I0<1>/I0<3>/NM2	I0<1>/I0<1>/I0<3>/Q#6	I0<1>/I0<1>/I0<3>/QB#3	VSS#44
+ VSS#1	nmos1v	L=4.5e-08	W=2.3e-07
+ AD=3.75e-14	AS=3.75e-14	PD=8.1e-07	PS=8.1e-07
MI0<1>/I0<1>/I0<3>/NM1	BLB#41	WL<23>#3	I0<1>/I0<1>/I0<3>/QB#4	VSS#1
+ nmos1v	L=4.5e-08	W=1.2e-07
+ AD=2.87e-14	AS=2.87e-14	PD=7e-07	PS=7e-07
MI0<1>/I0<1>/I0<3>/NM3	I0<1>/I0<1>/I0<3>/QB#4	I0<1>/I0<1>/I0<3>/Q	VSS#113
+ VSS#1	nmos1v	L=4.5e-08	W=2.3e-07
+ AD=3.75e-14	AS=3.75e-14	PD=8.1e-07	PS=8.1e-07
MI0<1>/I0<1>/I0<1>/NM0	I0<1>/I0<1>/I0<1>/Q#6	WL<21>#1	BL#43	VSS#1
+ nmos1v	L=4.5e-08	W=1.2e-07
+ AD=2.87e-14	AS=2.87e-14	PD=7e-07	PS=7e-07
MI0<1>/I0<1>/I0<1>/NM2	I0<1>/I0<1>/I0<1>/Q#6	I0<1>/I0<1>/I0<1>/QB#3	VSS#46
+ VSS#1	nmos1v	L=4.5e-08	W=2.3e-07
+ AD=3.75e-14	AS=3.75e-14	PD=8.1e-07	PS=8.1e-07
MI0<1>/I0<1>/I0<1>/NM1	BLB#43	WL<21>#3	I0<1>/I0<1>/I0<1>/QB#4	VSS#1
+ nmos1v	L=4.5e-08	W=1.2e-07
+ AD=2.87e-14	AS=2.87e-14	PD=7e-07	PS=7e-07
MI0<1>/I0<1>/I0<1>/NM3	I0<1>/I0<1>/I0<1>/QB#4	I0<1>/I0<1>/I0<1>/Q	VSS#115
+ VSS#1	nmos1v	L=4.5e-08	W=2.3e-07
+ AD=3.75e-14	AS=3.75e-14	PD=8.1e-07	PS=8.1e-07
MI0<1>/I0<1>/I0<2>/NM0	I0<1>/I0<1>/I0<2>/Q#6	WL<22>#1	BL#41	VSS#1
+ nmos1v	L=4.5e-08	W=1.2e-07
+ AD=2.87e-14	AS=2.87e-14	PD=7e-07	PS=7e-07
MI0<1>/I0<1>/I0<2>/NM2	I0<1>/I0<1>/I0<2>/Q#6	I0<1>/I0<1>/I0<2>/QB#2	VSS#46
+ VSS#1	nmos1v	L=4.5e-08	W=2.3e-07
+ AD=3.75e-14	AS=3.75e-14	PD=8.1e-07	PS=8.1e-07
MI0<1>/I0<1>/I0<2>/NM1	BLB#43	WL<22>#4	I0<1>/I0<1>/I0<2>/QB#4	VSS#1
+ nmos1v	L=4.5e-08	W=1.2e-07
+ AD=2.87e-14	AS=2.87e-14	PD=7e-07	PS=7e-07
MI0<1>/I0<1>/I0<2>/NM3	I0<1>/I0<1>/I0<2>/QB#4	I0<1>/I0<1>/I0<2>/Q	VSS#113
+ VSS#1	nmos1v	L=4.5e-08	W=2.3e-07
+ AD=3.75e-14	AS=3.75e-14	PD=8.1e-07	PS=8.1e-07
MI0<1>/I0<1>/I0<0>/NM0	I0<1>/I0<1>/I0<0>/Q#6	WL<20>#1	BL#43	VSS#1
+ nmos1v	L=4.5e-08	W=1.2e-07
+ AD=2.87e-14	AS=2.87e-14	PD=7e-07	PS=7e-07
MI0<1>/I0<1>/I0<0>/NM2	I0<1>/I0<1>/I0<0>/Q#6	I0<1>/I0<1>/I0<0>/QB#2	VSS#48
+ VSS#1	nmos1v	L=4.5e-08	W=2.3e-07
+ AD=3.75e-14	AS=3.75e-14	PD=8.1e-07	PS=8.1e-07
MI0<1>/I0<1>/I0<0>/NM1	BLB#45	WL<20>#4	I0<1>/I0<1>/I0<0>/QB#4	VSS#1
+ nmos1v	L=4.5e-08	W=1.2e-07
+ AD=2.87e-14	AS=2.87e-14	PD=7e-07	PS=7e-07
MI0<1>/I0<1>/I0<0>/NM3	I0<1>/I0<1>/I0<0>/QB#4	I0<1>/I0<1>/I0<0>/Q	VSS#115
+ VSS#1	nmos1v	L=4.5e-08	W=2.3e-07
+ AD=3.75e-14	AS=3.75e-14	PD=8.1e-07	PS=8.1e-07
MI0<1>/I0<0>/I0<3>/NM0	I0<1>/I0<0>/I0<3>/Q#6	WL<19>#1	BL#45	VSS#1
+ nmos1v	L=4.5e-08	W=1.2e-07
+ AD=2.87e-14	AS=2.87e-14	PD=7e-07	PS=7e-07
MI0<1>/I0<0>/I0<3>/NM2	I0<1>/I0<0>/I0<3>/Q#6	I0<1>/I0<0>/I0<3>/QB#3	VSS#48
+ VSS#1	nmos1v	L=4.5e-08	W=2.3e-07
+ AD=3.75e-14	AS=3.75e-14	PD=8.1e-07	PS=8.1e-07
MI0<1>/I0<0>/I0<3>/NM1	BLB#45	WL<19>#3	I0<1>/I0<0>/I0<3>/QB#4	VSS#1
+ nmos1v	L=4.5e-08	W=1.2e-07
+ AD=2.87e-14	AS=2.87e-14	PD=7e-07	PS=7e-07
MI0<1>/I0<0>/I0<3>/NM3	I0<1>/I0<0>/I0<3>/QB#4	I0<1>/I0<0>/I0<3>/Q	VSS#117
+ VSS#1	nmos1v	L=4.5e-08	W=2.3e-07
+ AD=3.75e-14	AS=3.75e-14	PD=8.1e-07	PS=8.1e-07
MI0<1>/I0<0>/I0<1>/NM0	I0<1>/I0<0>/I0<1>/Q#6	WL<17>#1	BL#47	VSS#1
+ nmos1v	L=4.5e-08	W=1.2e-07
+ AD=2.87e-14	AS=2.87e-14	PD=7e-07	PS=7e-07
MI0<1>/I0<0>/I0<1>/NM2	I0<1>/I0<0>/I0<1>/Q#6	I0<1>/I0<0>/I0<1>/QB#3	VSS#50
+ VSS#1	nmos1v	L=4.5e-08	W=2.3e-07
+ AD=3.75e-14	AS=3.75e-14	PD=8.1e-07	PS=8.1e-07
MI0<1>/I0<0>/I0<1>/NM1	BLB#47	WL<17>#3	I0<1>/I0<0>/I0<1>/QB#4	VSS#1
+ nmos1v	L=4.5e-08	W=1.2e-07
+ AD=2.87e-14	AS=2.87e-14	PD=7e-07	PS=7e-07
MI0<1>/I0<0>/I0<1>/NM3	I0<1>/I0<0>/I0<1>/QB#4	I0<1>/I0<0>/I0<1>/Q	VSS#119
+ VSS#1	nmos1v	L=4.5e-08	W=2.3e-07
+ AD=3.75e-14	AS=3.75e-14	PD=8.1e-07	PS=8.1e-07
MI0<1>/I0<0>/I0<2>/NM0	I0<1>/I0<0>/I0<2>/Q#6	WL<18>#1	BL#45	VSS#1
+ nmos1v	L=4.5e-08	W=1.2e-07
+ AD=2.87e-14	AS=2.87e-14	PD=7e-07	PS=7e-07
MI0<1>/I0<0>/I0<2>/NM2	I0<1>/I0<0>/I0<2>/Q#6	I0<1>/I0<0>/I0<2>/QB#2	VSS#50
+ VSS#1	nmos1v	L=4.5e-08	W=2.3e-07
+ AD=3.75e-14	AS=3.75e-14	PD=8.1e-07	PS=8.1e-07
MI0<1>/I0<0>/I0<2>/NM1	BLB#47	WL<18>#4	I0<1>/I0<0>/I0<2>/QB#4	VSS#1
+ nmos1v	L=4.5e-08	W=1.2e-07
+ AD=2.87e-14	AS=2.87e-14	PD=7e-07	PS=7e-07
MI0<1>/I0<0>/I0<2>/NM3	I0<1>/I0<0>/I0<2>/QB#4	I0<1>/I0<0>/I0<2>/Q	VSS#117
+ VSS#1	nmos1v	L=4.5e-08	W=2.3e-07
+ AD=3.75e-14	AS=3.75e-14	PD=8.1e-07	PS=8.1e-07
MI0<1>/I0<0>/I0<0>/NM0	I0<1>/I0<0>/I0<0>/Q#6	WL<16>#1	BL#47	VSS#1
+ nmos1v	L=4.5e-08	W=1.2e-07
+ AD=2.87e-14	AS=2.87e-14	PD=7e-07	PS=7e-07
MI0<1>/I0<0>/I0<0>/NM2	I0<1>/I0<0>/I0<0>/Q#6	I0<1>/I0<0>/I0<0>/QB#2	VSS#52
+ VSS#1	nmos1v	L=4.5e-08	W=2.3e-07
+ AD=3.75e-14	AS=3.75e-14	PD=8.1e-07	PS=8.1e-07
MI0<1>/I0<0>/I0<0>/NM1	BLB#49	WL<16>#4	I0<1>/I0<0>/I0<0>/QB#4	VSS#1
+ nmos1v	L=4.5e-08	W=1.2e-07
+ AD=2.87e-14	AS=2.87e-14	PD=7e-07	PS=7e-07
MI0<1>/I0<0>/I0<0>/NM3	I0<1>/I0<0>/I0<0>/QB#4	I0<1>/I0<0>/I0<0>/Q	VSS#119
+ VSS#1	nmos1v	L=4.5e-08	W=2.3e-07
+ AD=3.75e-14	AS=3.75e-14	PD=8.1e-07	PS=8.1e-07
MI0<0>/I0<3>/I0<3>/NM0	I0<0>/I0<3>/I0<3>/Q#6	WL<15>#1	BL#49	VSS#1
+ nmos1v	L=4.5e-08	W=1.2e-07
+ AD=2.87e-14	AS=2.87e-14	PD=7e-07	PS=7e-07
MI0<0>/I0<3>/I0<3>/NM2	I0<0>/I0<3>/I0<3>/Q#6	I0<0>/I0<3>/I0<3>/QB#3	VSS#52
+ VSS#1	nmos1v	L=4.5e-08	W=2.3e-07
+ AD=3.75e-14	AS=3.75e-14	PD=8.1e-07	PS=8.1e-07
MI0<0>/I0<3>/I0<3>/NM1	BLB#49	WL<15>#3	I0<0>/I0<3>/I0<3>/QB#4	VSS#1
+ nmos1v	L=4.5e-08	W=1.2e-07
+ AD=2.87e-14	AS=2.87e-14	PD=7e-07	PS=7e-07
MI0<0>/I0<3>/I0<3>/NM3	I0<0>/I0<3>/I0<3>/QB#4	I0<0>/I0<3>/I0<3>/Q	VSS#121
+ VSS#1	nmos1v	L=4.5e-08	W=2.3e-07
+ AD=3.75e-14	AS=3.75e-14	PD=8.1e-07	PS=8.1e-07
MI0<0>/I0<3>/I0<1>/NM0	I0<0>/I0<3>/I0<1>/Q#6	WL<13>#1	BL#51	VSS#1
+ nmos1v	L=4.5e-08	W=1.2e-07
+ AD=2.87e-14	AS=2.87e-14	PD=7e-07	PS=7e-07
MI0<0>/I0<3>/I0<1>/NM2	I0<0>/I0<3>/I0<1>/Q#6	I0<0>/I0<3>/I0<1>/QB#3	VSS#54
+ VSS#1	nmos1v	L=4.5e-08	W=2.3e-07
+ AD=3.75e-14	AS=3.75e-14	PD=8.1e-07	PS=8.1e-07
MI0<0>/I0<3>/I0<1>/NM1	BLB#51	WL<13>#3	I0<0>/I0<3>/I0<1>/QB#4	VSS#1
+ nmos1v	L=4.5e-08	W=1.2e-07
+ AD=2.87e-14	AS=2.87e-14	PD=7e-07	PS=7e-07
MI0<0>/I0<3>/I0<1>/NM3	I0<0>/I0<3>/I0<1>/QB#4	I0<0>/I0<3>/I0<1>/Q	VSS#123
+ VSS#1	nmos1v	L=4.5e-08	W=2.3e-07
+ AD=3.75e-14	AS=3.75e-14	PD=8.1e-07	PS=8.1e-07
MI0<0>/I0<3>/I0<2>/NM0	I0<0>/I0<3>/I0<2>/Q#6	WL<14>#1	BL#49	VSS#1
+ nmos1v	L=4.5e-08	W=1.2e-07
+ AD=2.87e-14	AS=2.87e-14	PD=7e-07	PS=7e-07
MI0<0>/I0<3>/I0<2>/NM2	I0<0>/I0<3>/I0<2>/Q#6	I0<0>/I0<3>/I0<2>/QB#2	VSS#54
+ VSS#1	nmos1v	L=4.5e-08	W=2.3e-07
+ AD=3.75e-14	AS=3.75e-14	PD=8.1e-07	PS=8.1e-07
MI0<0>/I0<3>/I0<2>/NM1	BLB#51	WL<14>#4	I0<0>/I0<3>/I0<2>/QB#4	VSS#1
+ nmos1v	L=4.5e-08	W=1.2e-07
+ AD=2.87e-14	AS=2.87e-14	PD=7e-07	PS=7e-07
MI0<0>/I0<3>/I0<2>/NM3	I0<0>/I0<3>/I0<2>/QB#4	I0<0>/I0<3>/I0<2>/Q	VSS#121
+ VSS#1	nmos1v	L=4.5e-08	W=2.3e-07
+ AD=3.75e-14	AS=3.75e-14	PD=8.1e-07	PS=8.1e-07
MI0<0>/I0<3>/I0<0>/NM0	I0<0>/I0<3>/I0<0>/Q#6	WL<12>#1	BL#51	VSS#1
+ nmos1v	L=4.5e-08	W=1.2e-07
+ AD=2.87e-14	AS=2.87e-14	PD=7e-07	PS=7e-07
MI0<0>/I0<3>/I0<0>/NM2	I0<0>/I0<3>/I0<0>/Q#6	I0<0>/I0<3>/I0<0>/QB#2	VSS#56
+ VSS#1	nmos1v	L=4.5e-08	W=2.3e-07
+ AD=3.75e-14	AS=3.75e-14	PD=8.1e-07	PS=8.1e-07
MI0<0>/I0<3>/I0<0>/NM1	BLB#53	WL<12>#4	I0<0>/I0<3>/I0<0>/QB#4	VSS#1
+ nmos1v	L=4.5e-08	W=1.2e-07
+ AD=2.87e-14	AS=2.87e-14	PD=7e-07	PS=7e-07
MI0<0>/I0<3>/I0<0>/NM3	I0<0>/I0<3>/I0<0>/QB#4	I0<0>/I0<3>/I0<0>/Q	VSS#123
+ VSS#1	nmos1v	L=4.5e-08	W=2.3e-07
+ AD=3.75e-14	AS=3.75e-14	PD=8.1e-07	PS=8.1e-07
MI0<0>/I0<2>/I0<3>/NM0	I0<0>/I0<2>/I0<3>/Q#6	WL<11>#1	BL#53	VSS#1
+ nmos1v	L=4.5e-08	W=1.2e-07
+ AD=2.87e-14	AS=2.87e-14	PD=7e-07	PS=7e-07
MI0<0>/I0<2>/I0<3>/NM2	I0<0>/I0<2>/I0<3>/Q#6	I0<0>/I0<2>/I0<3>/QB#3	VSS#56
+ VSS#1	nmos1v	L=4.5e-08	W=2.3e-07
+ AD=3.75e-14	AS=3.75e-14	PD=8.1e-07	PS=8.1e-07
MI0<0>/I0<2>/I0<3>/NM1	BLB#53	WL<11>#3	I0<0>/I0<2>/I0<3>/QB#4	VSS#1
+ nmos1v	L=4.5e-08	W=1.2e-07
+ AD=2.87e-14	AS=2.87e-14	PD=7e-07	PS=7e-07
MI0<0>/I0<2>/I0<3>/NM3	I0<0>/I0<2>/I0<3>/QB#4	I0<0>/I0<2>/I0<3>/Q	VSS#125
+ VSS#1	nmos1v	L=4.5e-08	W=2.3e-07
+ AD=3.75e-14	AS=3.75e-14	PD=8.1e-07	PS=8.1e-07
MI0<0>/I0<2>/I0<1>/NM0	I0<0>/I0<2>/I0<1>/Q#6	WL<9>#1	BL#55	VSS#1
+ nmos1v	L=4.5e-08	W=1.2e-07
+ AD=2.87e-14	AS=2.87e-14	PD=7e-07	PS=7e-07
MI0<0>/I0<2>/I0<1>/NM2	I0<0>/I0<2>/I0<1>/Q#6	I0<0>/I0<2>/I0<1>/QB#3	VSS#58
+ VSS#1	nmos1v	L=4.5e-08	W=2.3e-07
+ AD=3.75e-14	AS=3.75e-14	PD=8.1e-07	PS=8.1e-07
MI0<0>/I0<2>/I0<1>/NM1	BLB#55	WL<9>#3	I0<0>/I0<2>/I0<1>/QB#4	VSS#1
+ nmos1v	L=4.5e-08	W=1.2e-07
+ AD=2.87e-14	AS=2.87e-14	PD=7e-07	PS=7e-07
MI0<0>/I0<2>/I0<1>/NM3	I0<0>/I0<2>/I0<1>/QB#4	I0<0>/I0<2>/I0<1>/Q	VSS#127
+ VSS#1	nmos1v	L=4.5e-08	W=2.3e-07
+ AD=3.75e-14	AS=3.75e-14	PD=8.1e-07	PS=8.1e-07
MI0<0>/I0<2>/I0<2>/NM0	I0<0>/I0<2>/I0<2>/Q#6	WL<10>#1	BL#53	VSS#1
+ nmos1v	L=4.5e-08	W=1.2e-07
+ AD=2.87e-14	AS=2.87e-14	PD=7e-07	PS=7e-07
MI0<0>/I0<2>/I0<2>/NM2	I0<0>/I0<2>/I0<2>/Q#6	I0<0>/I0<2>/I0<2>/QB#2	VSS#58
+ VSS#1	nmos1v	L=4.5e-08	W=2.3e-07
+ AD=3.75e-14	AS=3.75e-14	PD=8.1e-07	PS=8.1e-07
MI0<0>/I0<2>/I0<2>/NM1	BLB#55	WL<10>#4	I0<0>/I0<2>/I0<2>/QB#4	VSS#1
+ nmos1v	L=4.5e-08	W=1.2e-07
+ AD=2.87e-14	AS=2.87e-14	PD=7e-07	PS=7e-07
MI0<0>/I0<2>/I0<2>/NM3	I0<0>/I0<2>/I0<2>/QB#4	I0<0>/I0<2>/I0<2>/Q	VSS#125
+ VSS#1	nmos1v	L=4.5e-08	W=2.3e-07
+ AD=3.75e-14	AS=3.75e-14	PD=8.1e-07	PS=8.1e-07
MI0<0>/I0<2>/I0<0>/NM0	I0<0>/I0<2>/I0<0>/Q#6	WL<8>#1	BL#55	VSS#1
+ nmos1v	L=4.5e-08	W=1.2e-07
+ AD=2.87e-14	AS=2.87e-14	PD=7e-07	PS=7e-07
MI0<0>/I0<2>/I0<0>/NM2	I0<0>/I0<2>/I0<0>/Q#6	I0<0>/I0<2>/I0<0>/QB#2	VSS#60
+ VSS#1	nmos1v	L=4.5e-08	W=2.3e-07
+ AD=3.75e-14	AS=3.75e-14	PD=8.1e-07	PS=8.1e-07
MI0<0>/I0<2>/I0<0>/NM1	BLB#57	WL<8>#4	I0<0>/I0<2>/I0<0>/QB#4	VSS#1
+ nmos1v	L=4.5e-08	W=1.2e-07
+ AD=2.87e-14	AS=2.87e-14	PD=7e-07	PS=7e-07
MI0<0>/I0<2>/I0<0>/NM3	I0<0>/I0<2>/I0<0>/QB#4	I0<0>/I0<2>/I0<0>/Q	VSS#127
+ VSS#1	nmos1v	L=4.5e-08	W=2.3e-07
+ AD=3.75e-14	AS=3.75e-14	PD=8.1e-07	PS=8.1e-07
MI0<0>/I0<1>/I0<3>/NM0	I0<0>/I0<1>/I0<3>/Q#6	WL<7>#1	BL#57	VSS#1
+ nmos1v	L=4.5e-08	W=1.2e-07
+ AD=2.87e-14	AS=2.87e-14	PD=7e-07	PS=7e-07
MI0<0>/I0<1>/I0<3>/NM2	I0<0>/I0<1>/I0<3>/Q#6	I0<0>/I0<1>/I0<3>/QB#3	VSS#60
+ VSS#1	nmos1v	L=4.5e-08	W=2.3e-07
+ AD=3.75e-14	AS=3.75e-14	PD=8.1e-07	PS=8.1e-07
MI0<0>/I0<1>/I0<3>/NM1	BLB#57	WL<7>#3	I0<0>/I0<1>/I0<3>/QB#4	VSS#1
+ nmos1v	L=4.5e-08	W=1.2e-07
+ AD=2.87e-14	AS=2.87e-14	PD=7e-07	PS=7e-07
MI0<0>/I0<1>/I0<3>/NM3	I0<0>/I0<1>/I0<3>/QB#4	I0<0>/I0<1>/I0<3>/Q	VSS#129
+ VSS#1	nmos1v	L=4.5e-08	W=2.3e-07
+ AD=3.75e-14	AS=3.75e-14	PD=8.1e-07	PS=8.1e-07
MI0<0>/I0<1>/I0<1>/NM0	I0<0>/I0<1>/I0<1>/Q#6	WL<5>#1	BL#59	VSS#1
+ nmos1v	L=4.5e-08	W=1.2e-07
+ AD=2.87e-14	AS=2.87e-14	PD=7e-07	PS=7e-07
MI0<0>/I0<1>/I0<1>/NM2	I0<0>/I0<1>/I0<1>/Q#6	I0<0>/I0<1>/I0<1>/QB#3	VSS#62
+ VSS#1	nmos1v	L=4.5e-08	W=2.3e-07
+ AD=3.75e-14	AS=3.75e-14	PD=8.1e-07	PS=8.1e-07
MI0<0>/I0<1>/I0<1>/NM1	BLB#59	WL<5>#3	I0<0>/I0<1>/I0<1>/QB#4	VSS#1
+ nmos1v	L=4.5e-08	W=1.2e-07
+ AD=2.87e-14	AS=2.87e-14	PD=7e-07	PS=7e-07
MI0<0>/I0<1>/I0<1>/NM3	I0<0>/I0<1>/I0<1>/QB#4	I0<0>/I0<1>/I0<1>/Q	VSS#131
+ VSS#1	nmos1v	L=4.5e-08	W=2.3e-07
+ AD=3.75e-14	AS=3.75e-14	PD=8.1e-07	PS=8.1e-07
MI0<0>/I0<1>/I0<2>/NM0	I0<0>/I0<1>/I0<2>/Q#6	WL<6>#1	BL#57	VSS#1
+ nmos1v	L=4.5e-08	W=1.2e-07
+ AD=2.87e-14	AS=2.87e-14	PD=7e-07	PS=7e-07
MI0<0>/I0<1>/I0<2>/NM2	I0<0>/I0<1>/I0<2>/Q#6	I0<0>/I0<1>/I0<2>/QB#2	VSS#62
+ VSS#1	nmos1v	L=4.5e-08	W=2.3e-07
+ AD=3.75e-14	AS=3.75e-14	PD=8.1e-07	PS=8.1e-07
MI0<0>/I0<1>/I0<2>/NM1	BLB#59	WL<6>#4	I0<0>/I0<1>/I0<2>/QB#4	VSS#1
+ nmos1v	L=4.5e-08	W=1.2e-07
+ AD=2.87e-14	AS=2.87e-14	PD=7e-07	PS=7e-07
MI0<0>/I0<1>/I0<2>/NM3	I0<0>/I0<1>/I0<2>/QB#4	I0<0>/I0<1>/I0<2>/Q	VSS#129
+ VSS#1	nmos1v	L=4.5e-08	W=2.3e-07
+ AD=3.75e-14	AS=3.75e-14	PD=8.1e-07	PS=8.1e-07
MI0<0>/I0<1>/I0<0>/NM0	I0<0>/I0<1>/I0<0>/Q#6	WL<4>#1	BL#59	VSS#1
+ nmos1v	L=4.5e-08	W=1.2e-07
+ AD=2.87e-14	AS=2.87e-14	PD=7e-07	PS=7e-07
MI0<0>/I0<1>/I0<0>/NM2	I0<0>/I0<1>/I0<0>/Q#6	I0<0>/I0<1>/I0<0>/QB#2	VSS#64
+ VSS#1	nmos1v	L=4.5e-08	W=2.3e-07
+ AD=3.75e-14	AS=3.75e-14	PD=8.1e-07	PS=8.1e-07
MI0<0>/I0<1>/I0<0>/NM1	BLB#61	WL<4>#4	I0<0>/I0<1>/I0<0>/QB#4	VSS#1
+ nmos1v	L=4.5e-08	W=1.2e-07
+ AD=2.87e-14	AS=2.87e-14	PD=7e-07	PS=7e-07
MI0<0>/I0<1>/I0<0>/NM3	I0<0>/I0<1>/I0<0>/QB#4	I0<0>/I0<1>/I0<0>/Q	VSS#131
+ VSS#1	nmos1v	L=4.5e-08	W=2.3e-07
+ AD=3.75e-14	AS=3.75e-14	PD=8.1e-07	PS=8.1e-07
MI0<0>/I0<0>/I0<3>/NM0	I0<0>/I0<0>/I0<3>/Q#6	WL<3>#1	BL#61	VSS#1
+ nmos1v	L=4.5e-08	W=1.2e-07
+ AD=2.87e-14	AS=2.87e-14	PD=7e-07	PS=7e-07
MI0<0>/I0<0>/I0<3>/NM2	I0<0>/I0<0>/I0<3>/Q#6	I0<0>/I0<0>/I0<3>/QB#3	VSS#64
+ VSS#1	nmos1v	L=4.5e-08	W=2.3e-07
+ AD=3.75e-14	AS=3.75e-14	PD=8.1e-07	PS=8.1e-07
MI0<0>/I0<0>/I0<3>/NM1	BLB#61	WL<3>#3	I0<0>/I0<0>/I0<3>/QB#4	VSS#1
+ nmos1v	L=4.5e-08	W=1.2e-07
+ AD=2.87e-14	AS=2.87e-14	PD=7e-07	PS=7e-07
MI0<0>/I0<0>/I0<3>/NM3	I0<0>/I0<0>/I0<3>/QB#4	I0<0>/I0<0>/I0<3>/Q	VSS#133
+ VSS#1	nmos1v	L=4.5e-08	W=2.3e-07
+ AD=3.75e-14	AS=3.75e-14	PD=8.1e-07	PS=8.1e-07
MI0<0>/I0<0>/I0<1>/NM0	I0<0>/I0<0>/I0<1>/Q#6	WL<1>#1	BL#63	VSS#1
+ nmos1v	L=4.5e-08	W=1.2e-07
+ AD=2.87e-14	AS=2.87e-14	PD=7e-07	PS=7e-07
MI0<0>/I0<0>/I0<1>/NM2	I0<0>/I0<0>/I0<1>/Q#6	I0<0>/I0<0>/I0<1>/QB#3	VSS#66
+ VSS#1	nmos1v	L=4.5e-08	W=2.3e-07
+ AD=3.75e-14	AS=3.75e-14	PD=8.1e-07	PS=8.1e-07
MI0<0>/I0<0>/I0<1>/NM1	BLB#63	WL<1>#3	I0<0>/I0<0>/I0<1>/QB#4	VSS#1
+ nmos1v	L=4.5e-08	W=1.2e-07
+ AD=2.87e-14	AS=2.87e-14	PD=7e-07	PS=7e-07
MI0<0>/I0<0>/I0<1>/NM3	I0<0>/I0<0>/I0<1>/QB#4	I0<0>/I0<0>/I0<1>/Q	VSS#135
+ VSS#1	nmos1v	L=4.5e-08	W=2.3e-07
+ AD=3.75e-14	AS=3.75e-14	PD=8.1e-07	PS=8.1e-07
MI0<0>/I0<0>/I0<2>/NM0	I0<0>/I0<0>/I0<2>/Q#6	WL<2>#1	BL#61	VSS#1
+ nmos1v	L=4.5e-08	W=1.2e-07
+ AD=2.87e-14	AS=2.87e-14	PD=7e-07	PS=7e-07
MI0<0>/I0<0>/I0<2>/NM2	I0<0>/I0<0>/I0<2>/Q#6	I0<0>/I0<0>/I0<2>/QB#2	VSS#66
+ VSS#1	nmos1v	L=4.5e-08	W=2.3e-07
+ AD=3.75e-14	AS=3.75e-14	PD=8.1e-07	PS=8.1e-07
MI0<0>/I0<0>/I0<2>/NM1	BLB#63	WL<2>#4	I0<0>/I0<0>/I0<2>/QB#4	VSS#1
+ nmos1v	L=4.5e-08	W=1.2e-07
+ AD=2.87e-14	AS=2.87e-14	PD=7e-07	PS=7e-07
MI0<0>/I0<0>/I0<2>/NM3	I0<0>/I0<0>/I0<2>/QB#4	I0<0>/I0<0>/I0<2>/Q	VSS#133
+ VSS#1	nmos1v	L=4.5e-08	W=2.3e-07
+ AD=3.75e-14	AS=3.75e-14	PD=8.1e-07	PS=8.1e-07
MI0<0>/I0<0>/I0<0>/NM0	I0<0>/I0<0>/I0<0>/Q#6	WL<0>#1	BL#63	VSS#1
+ nmos1v	L=4.5e-08	W=1.2e-07
+ AD=2.87e-14	AS=2.87e-14	PD=7e-07	PS=7e-07
MI0<0>/I0<0>/I0<0>/NM2	I0<0>/I0<0>/I0<0>/Q#6	I0<0>/I0<0>/I0<0>/QB#2	VSS#68
+ VSS#1	nmos1v	L=4.5e-08	W=2.3e-07
+ AD=3.52e-14	AS=3.52e-14	PD=7.9e-07	PS=7.9e-07
MI0<0>/I0<0>/I0<0>/NM1	BLB#65	WL<0>#4	I0<0>/I0<0>/I0<0>/QB#4	VSS#1
+ nmos1v	L=4.5e-08	W=1.2e-07
+ AD=2.75e-14	AS=2.75e-14	PD=6.8e-07	PS=6.8e-07
MI0<0>/I0<0>/I0<0>/NM3	I0<0>/I0<0>/I0<0>/QB#4	I0<0>/I0<0>/I0<0>/Q	VSS#135
+ VSS#1	nmos1v	L=4.5e-08	W=2.3e-07
+ AD=3.75e-14	AS=3.75e-14	PD=8.1e-07	PS=8.1e-07
MI0<3>/I0<3>/I0<3>/PM0	I0<3>/I0<3>/I0<3>/Q#4	I0<3>/I0<3>/I0<3>/QB#2	VDD#2
+ VDD#68	pmos1v	L=4.5e-08	W=1.2e-07
+ AD=1.68e-14	AS=1.68e-14	PD=5.2e-07	PS=5.2e-07
MI0<3>/I0<3>/I0<3>/PM1	I0<3>/I0<3>/I0<3>/QB#5	I0<3>/I0<3>/I0<3>/Q#2	VDD#70
+ VDD#68	pmos1v	L=4.5e-08	W=1.2e-07
+ AD=1.8e-14	AS=1.8e-14	PD=5.4e-07	PS=5.4e-07
MI0<3>/I0<3>/I0<1>/PM0	I0<3>/I0<3>/I0<1>/Q#4	I0<3>/I0<3>/I0<1>/QB#2	VDD#4
+ VDD#68	pmos1v	L=4.5e-08	W=1.2e-07
+ AD=1.8e-14	AS=1.8e-14	PD=5.4e-07	PS=5.4e-07
MI0<3>/I0<3>/I0<1>/PM1	I0<3>/I0<3>/I0<1>/QB#5	I0<3>/I0<3>/I0<1>/Q#2	VDD#72
+ VDD#68	pmos1v	L=4.5e-08	W=1.2e-07
+ AD=1.8e-14	AS=1.8e-14	PD=5.4e-07	PS=5.4e-07
MI0<3>/I0<3>/I0<2>/PM0	I0<3>/I0<3>/I0<2>/Q#4	I0<3>/I0<3>/I0<2>/QB	VDD#4
+ VDD#68	pmos1v	L=4.5e-08	W=1.2e-07
+ AD=1.8e-14	AS=1.8e-14	PD=5.4e-07	PS=5.4e-07
MI0<3>/I0<3>/I0<2>/PM1	I0<3>/I0<3>/I0<2>/QB#5	I0<3>/I0<3>/I0<2>/Q#2	VDD#70
+ VDD#68	pmos1v	L=4.5e-08	W=1.2e-07
+ AD=1.8e-14	AS=1.8e-14	PD=5.4e-07	PS=5.4e-07
MI0<3>/I0<3>/I0<0>/PM0	I0<3>/I0<3>/I0<0>/Q#4	I0<3>/I0<3>/I0<0>/QB	VDD#6
+ VDD#68	pmos1v	L=4.5e-08	W=1.2e-07
+ AD=1.8e-14	AS=1.8e-14	PD=5.4e-07	PS=5.4e-07
MI0<3>/I0<3>/I0<0>/PM1	I0<3>/I0<3>/I0<0>/QB#5	I0<3>/I0<3>/I0<0>/Q#2	VDD#72
+ VDD#68	pmos1v	L=4.5e-08	W=1.2e-07
+ AD=1.8e-14	AS=1.8e-14	PD=5.4e-07	PS=5.4e-07
MI0<3>/I0<2>/I0<3>/PM0	I0<3>/I0<2>/I0<3>/Q#4	I0<3>/I0<2>/I0<3>/QB#2	VDD#6
+ VDD#68	pmos1v	L=4.5e-08	W=1.2e-07
+ AD=1.8e-14	AS=1.8e-14	PD=5.4e-07	PS=5.4e-07
MI0<3>/I0<2>/I0<3>/PM1	I0<3>/I0<2>/I0<3>/QB#5	I0<3>/I0<2>/I0<3>/Q#2	VDD#74
+ VDD#68	pmos1v	L=4.5e-08	W=1.2e-07
+ AD=1.8e-14	AS=1.8e-14	PD=5.4e-07	PS=5.4e-07
MI0<3>/I0<2>/I0<1>/PM0	I0<3>/I0<2>/I0<1>/Q#4	I0<3>/I0<2>/I0<1>/QB#2	VDD#8
+ VDD#68	pmos1v	L=4.5e-08	W=1.2e-07
+ AD=1.8e-14	AS=1.8e-14	PD=5.4e-07	PS=5.4e-07
MI0<3>/I0<2>/I0<1>/PM1	I0<3>/I0<2>/I0<1>/QB#5	I0<3>/I0<2>/I0<1>/Q#2	VDD#76
+ VDD#68	pmos1v	L=4.5e-08	W=1.2e-07
+ AD=1.8e-14	AS=1.8e-14	PD=5.4e-07	PS=5.4e-07
MI0<3>/I0<2>/I0<2>/PM0	I0<3>/I0<2>/I0<2>/Q#4	I0<3>/I0<2>/I0<2>/QB	VDD#8
+ VDD#68	pmos1v	L=4.5e-08	W=1.2e-07
+ AD=1.8e-14	AS=1.8e-14	PD=5.4e-07	PS=5.4e-07
MI0<3>/I0<2>/I0<2>/PM1	I0<3>/I0<2>/I0<2>/QB#5	I0<3>/I0<2>/I0<2>/Q#2	VDD#74
+ VDD#68	pmos1v	L=4.5e-08	W=1.2e-07
+ AD=1.8e-14	AS=1.8e-14	PD=5.4e-07	PS=5.4e-07
MI0<3>/I0<2>/I0<0>/PM0	I0<3>/I0<2>/I0<0>/Q#4	I0<3>/I0<2>/I0<0>/QB	VDD#10
+ VDD#68	pmos1v	L=4.5e-08	W=1.2e-07
+ AD=1.8e-14	AS=1.8e-14	PD=5.4e-07	PS=5.4e-07
MI0<3>/I0<2>/I0<0>/PM1	I0<3>/I0<2>/I0<0>/QB#5	I0<3>/I0<2>/I0<0>/Q#2	VDD#76
+ VDD#68	pmos1v	L=4.5e-08	W=1.2e-07
+ AD=1.8e-14	AS=1.8e-14	PD=5.4e-07	PS=5.4e-07
MI0<3>/I0<1>/I0<3>/PM0	I0<3>/I0<1>/I0<3>/Q#4	I0<3>/I0<1>/I0<3>/QB#2	VDD#10
+ VDD#68	pmos1v	L=4.5e-08	W=1.2e-07
+ AD=1.8e-14	AS=1.8e-14	PD=5.4e-07	PS=5.4e-07
MI0<3>/I0<1>/I0<3>/PM1	I0<3>/I0<1>/I0<3>/QB#5	I0<3>/I0<1>/I0<3>/Q#2	VDD#78
+ VDD#68	pmos1v	L=4.5e-08	W=1.2e-07
+ AD=1.8e-14	AS=1.8e-14	PD=5.4e-07	PS=5.4e-07
MI0<3>/I0<1>/I0<1>/PM0	I0<3>/I0<1>/I0<1>/Q#4	I0<3>/I0<1>/I0<1>/QB#2	VDD#12
+ VDD#68	pmos1v	L=4.5e-08	W=1.2e-07
+ AD=1.8e-14	AS=1.8e-14	PD=5.4e-07	PS=5.4e-07
MI0<3>/I0<1>/I0<1>/PM1	I0<3>/I0<1>/I0<1>/QB#5	I0<3>/I0<1>/I0<1>/Q#2	VDD#80
+ VDD#68	pmos1v	L=4.5e-08	W=1.2e-07
+ AD=1.8e-14	AS=1.8e-14	PD=5.4e-07	PS=5.4e-07
MI0<3>/I0<1>/I0<2>/PM0	I0<3>/I0<1>/I0<2>/Q#4	I0<3>/I0<1>/I0<2>/QB	VDD#12
+ VDD#68	pmos1v	L=4.5e-08	W=1.2e-07
+ AD=1.8e-14	AS=1.8e-14	PD=5.4e-07	PS=5.4e-07
MI0<3>/I0<1>/I0<2>/PM1	I0<3>/I0<1>/I0<2>/QB#5	I0<3>/I0<1>/I0<2>/Q#2	VDD#78
+ VDD#68	pmos1v	L=4.5e-08	W=1.2e-07
+ AD=1.8e-14	AS=1.8e-14	PD=5.4e-07	PS=5.4e-07
MI0<3>/I0<1>/I0<0>/PM0	I0<3>/I0<1>/I0<0>/Q#4	I0<3>/I0<1>/I0<0>/QB	VDD#14
+ VDD#68	pmos1v	L=4.5e-08	W=1.2e-07
+ AD=1.8e-14	AS=1.8e-14	PD=5.4e-07	PS=5.4e-07
MI0<3>/I0<1>/I0<0>/PM1	I0<3>/I0<1>/I0<0>/QB#5	I0<3>/I0<1>/I0<0>/Q#2	VDD#80
+ VDD#68	pmos1v	L=4.5e-08	W=1.2e-07
+ AD=1.8e-14	AS=1.8e-14	PD=5.4e-07	PS=5.4e-07
MI0<3>/I0<0>/I0<3>/PM0	I0<3>/I0<0>/I0<3>/Q#4	I0<3>/I0<0>/I0<3>/QB#2	VDD#14
+ VDD#68	pmos1v	L=4.5e-08	W=1.2e-07
+ AD=1.8e-14	AS=1.8e-14	PD=5.4e-07	PS=5.4e-07
MI0<3>/I0<0>/I0<3>/PM1	I0<3>/I0<0>/I0<3>/QB#5	I0<3>/I0<0>/I0<3>/Q#2	VDD#82
+ VDD#68	pmos1v	L=4.5e-08	W=1.2e-07
+ AD=1.8e-14	AS=1.8e-14	PD=5.4e-07	PS=5.4e-07
MI0<3>/I0<0>/I0<1>/PM0	I0<3>/I0<0>/I0<1>/Q#4	I0<3>/I0<0>/I0<1>/QB#2	VDD#16
+ VDD#68	pmos1v	L=4.5e-08	W=1.2e-07
+ AD=1.8e-14	AS=1.8e-14	PD=5.4e-07	PS=5.4e-07
MI0<3>/I0<0>/I0<1>/PM1	I0<3>/I0<0>/I0<1>/QB#5	I0<3>/I0<0>/I0<1>/Q#2	VDD#84
+ VDD#68	pmos1v	L=4.5e-08	W=1.2e-07
+ AD=1.8e-14	AS=1.8e-14	PD=5.4e-07	PS=5.4e-07
MI0<3>/I0<0>/I0<2>/PM0	I0<3>/I0<0>/I0<2>/Q#4	I0<3>/I0<0>/I0<2>/QB	VDD#16
+ VDD#68	pmos1v	L=4.5e-08	W=1.2e-07
+ AD=1.8e-14	AS=1.8e-14	PD=5.4e-07	PS=5.4e-07
MI0<3>/I0<0>/I0<2>/PM1	I0<3>/I0<0>/I0<2>/QB#5	I0<3>/I0<0>/I0<2>/Q#2	VDD#82
+ VDD#68	pmos1v	L=4.5e-08	W=1.2e-07
+ AD=1.8e-14	AS=1.8e-14	PD=5.4e-07	PS=5.4e-07
MI0<3>/I0<0>/I0<0>/PM0	I0<3>/I0<0>/I0<0>/Q#4	I0<3>/I0<0>/I0<0>/QB	VDD#18
+ VDD#68	pmos1v	L=4.5e-08	W=1.2e-07
+ AD=1.8e-14	AS=1.8e-14	PD=5.4e-07	PS=5.4e-07
MI0<3>/I0<0>/I0<0>/PM1	I0<3>/I0<0>/I0<0>/QB#5	I0<3>/I0<0>/I0<0>/Q#2	VDD#84
+ VDD#68	pmos1v	L=4.5e-08	W=1.2e-07
+ AD=1.8e-14	AS=1.8e-14	PD=5.4e-07	PS=5.4e-07
MI0<2>/I0<3>/I0<3>/PM0	I0<2>/I0<3>/I0<3>/Q#4	I0<2>/I0<3>/I0<3>/QB#2	VDD#18
+ VDD#68	pmos1v	L=4.5e-08	W=1.2e-07
+ AD=1.8e-14	AS=1.8e-14	PD=5.4e-07	PS=5.4e-07
MI0<2>/I0<3>/I0<3>/PM1	I0<2>/I0<3>/I0<3>/QB#5	I0<2>/I0<3>/I0<3>/Q#2	VDD#86
+ VDD#68	pmos1v	L=4.5e-08	W=1.2e-07
+ AD=1.8e-14	AS=1.8e-14	PD=5.4e-07	PS=5.4e-07
MI0<2>/I0<3>/I0<1>/PM0	I0<2>/I0<3>/I0<1>/Q#4	I0<2>/I0<3>/I0<1>/QB#2	VDD#20
+ VDD#68	pmos1v	L=4.5e-08	W=1.2e-07
+ AD=1.8e-14	AS=1.8e-14	PD=5.4e-07	PS=5.4e-07
MI0<2>/I0<3>/I0<1>/PM1	I0<2>/I0<3>/I0<1>/QB#5	I0<2>/I0<3>/I0<1>/Q#2	VDD#88
+ VDD#68	pmos1v	L=4.5e-08	W=1.2e-07
+ AD=1.8e-14	AS=1.8e-14	PD=5.4e-07	PS=5.4e-07
MI0<2>/I0<3>/I0<2>/PM0	I0<2>/I0<3>/I0<2>/Q#4	I0<2>/I0<3>/I0<2>/QB	VDD#20
+ VDD#68	pmos1v	L=4.5e-08	W=1.2e-07
+ AD=1.8e-14	AS=1.8e-14	PD=5.4e-07	PS=5.4e-07
MI0<2>/I0<3>/I0<2>/PM1	I0<2>/I0<3>/I0<2>/QB#5	I0<2>/I0<3>/I0<2>/Q#2	VDD#86
+ VDD#68	pmos1v	L=4.5e-08	W=1.2e-07
+ AD=1.8e-14	AS=1.8e-14	PD=5.4e-07	PS=5.4e-07
MI0<2>/I0<3>/I0<0>/PM0	I0<2>/I0<3>/I0<0>/Q#4	I0<2>/I0<3>/I0<0>/QB	VDD#22
+ VDD#68	pmos1v	L=4.5e-08	W=1.2e-07
+ AD=1.8e-14	AS=1.8e-14	PD=5.4e-07	PS=5.4e-07
MI0<2>/I0<3>/I0<0>/PM1	I0<2>/I0<3>/I0<0>/QB#5	I0<2>/I0<3>/I0<0>/Q#2	VDD#88
+ VDD#68	pmos1v	L=4.5e-08	W=1.2e-07
+ AD=1.8e-14	AS=1.8e-14	PD=5.4e-07	PS=5.4e-07
MI0<2>/I0<2>/I0<3>/PM0	I0<2>/I0<2>/I0<3>/Q#4	I0<2>/I0<2>/I0<3>/QB#2	VDD#22
+ VDD#68	pmos1v	L=4.5e-08	W=1.2e-07
+ AD=1.8e-14	AS=1.8e-14	PD=5.4e-07	PS=5.4e-07
MI0<2>/I0<2>/I0<3>/PM1	I0<2>/I0<2>/I0<3>/QB#5	I0<2>/I0<2>/I0<3>/Q#2	VDD#90
+ VDD#68	pmos1v	L=4.5e-08	W=1.2e-07
+ AD=1.8e-14	AS=1.8e-14	PD=5.4e-07	PS=5.4e-07
MI0<2>/I0<2>/I0<1>/PM0	I0<2>/I0<2>/I0<1>/Q#4	I0<2>/I0<2>/I0<1>/QB#2	VDD#24
+ VDD#68	pmos1v	L=4.5e-08	W=1.2e-07
+ AD=1.8e-14	AS=1.8e-14	PD=5.4e-07	PS=5.4e-07
MI0<2>/I0<2>/I0<1>/PM1	I0<2>/I0<2>/I0<1>/QB#5	I0<2>/I0<2>/I0<1>/Q#2	VDD#92
+ VDD#68	pmos1v	L=4.5e-08	W=1.2e-07
+ AD=1.8e-14	AS=1.8e-14	PD=5.4e-07	PS=5.4e-07
MI0<2>/I0<2>/I0<2>/PM0	I0<2>/I0<2>/I0<2>/Q#4	I0<2>/I0<2>/I0<2>/QB	VDD#24
+ VDD#68	pmos1v	L=4.5e-08	W=1.2e-07
+ AD=1.8e-14	AS=1.8e-14	PD=5.4e-07	PS=5.4e-07
MI0<2>/I0<2>/I0<2>/PM1	I0<2>/I0<2>/I0<2>/QB#5	I0<2>/I0<2>/I0<2>/Q#2	VDD#90
+ VDD#68	pmos1v	L=4.5e-08	W=1.2e-07
+ AD=1.8e-14	AS=1.8e-14	PD=5.4e-07	PS=5.4e-07
MI0<2>/I0<2>/I0<0>/PM0	I0<2>/I0<2>/I0<0>/Q#4	I0<2>/I0<2>/I0<0>/QB	VDD#26
+ VDD#68	pmos1v	L=4.5e-08	W=1.2e-07
+ AD=1.8e-14	AS=1.8e-14	PD=5.4e-07	PS=5.4e-07
MI0<2>/I0<2>/I0<0>/PM1	I0<2>/I0<2>/I0<0>/QB#5	I0<2>/I0<2>/I0<0>/Q#2	VDD#92
+ VDD#68	pmos1v	L=4.5e-08	W=1.2e-07
+ AD=1.8e-14	AS=1.8e-14	PD=5.4e-07	PS=5.4e-07
MI0<2>/I0<1>/I0<3>/PM0	I0<2>/I0<1>/I0<3>/Q#4	I0<2>/I0<1>/I0<3>/QB#2	VDD#26
+ VDD#68	pmos1v	L=4.5e-08	W=1.2e-07
+ AD=1.8e-14	AS=1.8e-14	PD=5.4e-07	PS=5.4e-07
MI0<2>/I0<1>/I0<3>/PM1	I0<2>/I0<1>/I0<3>/QB#5	I0<2>/I0<1>/I0<3>/Q#2	VDD#94
+ VDD#68	pmos1v	L=4.5e-08	W=1.2e-07
+ AD=1.8e-14	AS=1.8e-14	PD=5.4e-07	PS=5.4e-07
MI0<2>/I0<1>/I0<1>/PM0	I0<2>/I0<1>/I0<1>/Q#4	I0<2>/I0<1>/I0<1>/QB#2	VDD#28
+ VDD#68	pmos1v	L=4.5e-08	W=1.2e-07
+ AD=1.8e-14	AS=1.8e-14	PD=5.4e-07	PS=5.4e-07
MI0<2>/I0<1>/I0<1>/PM1	I0<2>/I0<1>/I0<1>/QB#5	I0<2>/I0<1>/I0<1>/Q#2	VDD#96
+ VDD#68	pmos1v	L=4.5e-08	W=1.2e-07
+ AD=1.8e-14	AS=1.8e-14	PD=5.4e-07	PS=5.4e-07
MI0<2>/I0<1>/I0<2>/PM0	I0<2>/I0<1>/I0<2>/Q#4	I0<2>/I0<1>/I0<2>/QB	VDD#28
+ VDD#68	pmos1v	L=4.5e-08	W=1.2e-07
+ AD=1.8e-14	AS=1.8e-14	PD=5.4e-07	PS=5.4e-07
MI0<2>/I0<1>/I0<2>/PM1	I0<2>/I0<1>/I0<2>/QB#5	I0<2>/I0<1>/I0<2>/Q#2	VDD#94
+ VDD#68	pmos1v	L=4.5e-08	W=1.2e-07
+ AD=1.8e-14	AS=1.8e-14	PD=5.4e-07	PS=5.4e-07
MI0<2>/I0<1>/I0<0>/PM0	I0<2>/I0<1>/I0<0>/Q#4	I0<2>/I0<1>/I0<0>/QB	VDD#30
+ VDD#68	pmos1v	L=4.5e-08	W=1.2e-07
+ AD=1.8e-14	AS=1.8e-14	PD=5.4e-07	PS=5.4e-07
MI0<2>/I0<1>/I0<0>/PM1	I0<2>/I0<1>/I0<0>/QB#5	I0<2>/I0<1>/I0<0>/Q#2	VDD#96
+ VDD#68	pmos1v	L=4.5e-08	W=1.2e-07
+ AD=1.8e-14	AS=1.8e-14	PD=5.4e-07	PS=5.4e-07
MI0<2>/I0<0>/I0<3>/PM0	I0<2>/I0<0>/I0<3>/Q#4	I0<2>/I0<0>/I0<3>/QB#2	VDD#30
+ VDD#68	pmos1v	L=4.5e-08	W=1.2e-07
+ AD=1.8e-14	AS=1.8e-14	PD=5.4e-07	PS=5.4e-07
MI0<2>/I0<0>/I0<3>/PM1	I0<2>/I0<0>/I0<3>/QB#5	I0<2>/I0<0>/I0<3>/Q#2	VDD#98
+ VDD#68	pmos1v	L=4.5e-08	W=1.2e-07
+ AD=1.8e-14	AS=1.8e-14	PD=5.4e-07	PS=5.4e-07
MI0<2>/I0<0>/I0<1>/PM0	I0<2>/I0<0>/I0<1>/Q#4	I0<2>/I0<0>/I0<1>/QB#2	VDD#32
+ VDD#68	pmos1v	L=4.5e-08	W=1.2e-07
+ AD=1.8e-14	AS=1.8e-14	PD=5.4e-07	PS=5.4e-07
MI0<2>/I0<0>/I0<1>/PM1	I0<2>/I0<0>/I0<1>/QB#5	I0<2>/I0<0>/I0<1>/Q#2	VDD#100
+ VDD#68	pmos1v	L=4.5e-08	W=1.2e-07
+ AD=1.8e-14	AS=1.8e-14	PD=5.4e-07	PS=5.4e-07
MI0<2>/I0<0>/I0<2>/PM0	I0<2>/I0<0>/I0<2>/Q#4	I0<2>/I0<0>/I0<2>/QB	VDD#32
+ VDD#68	pmos1v	L=4.5e-08	W=1.2e-07
+ AD=1.8e-14	AS=1.8e-14	PD=5.4e-07	PS=5.4e-07
MI0<2>/I0<0>/I0<2>/PM1	I0<2>/I0<0>/I0<2>/QB#5	I0<2>/I0<0>/I0<2>/Q#2	VDD#98
+ VDD#68	pmos1v	L=4.5e-08	W=1.2e-07
+ AD=1.8e-14	AS=1.8e-14	PD=5.4e-07	PS=5.4e-07
MI0<2>/I0<0>/I0<0>/PM0	I0<2>/I0<0>/I0<0>/Q#4	I0<2>/I0<0>/I0<0>/QB	VDD#34
+ VDD#68	pmos1v	L=4.5e-08	W=1.2e-07
+ AD=1.8e-14	AS=1.8e-14	PD=5.4e-07	PS=5.4e-07
MI0<2>/I0<0>/I0<0>/PM1	I0<2>/I0<0>/I0<0>/QB#5	I0<2>/I0<0>/I0<0>/Q#2	VDD#100
+ VDD#68	pmos1v	L=4.5e-08	W=1.2e-07
+ AD=1.8e-14	AS=1.8e-14	PD=5.4e-07	PS=5.4e-07
MI0<1>/I0<3>/I0<3>/PM0	I0<1>/I0<3>/I0<3>/Q#4	I0<1>/I0<3>/I0<3>/QB#2	VDD#34
+ VDD#68	pmos1v	L=4.5e-08	W=1.2e-07
+ AD=1.8e-14	AS=1.8e-14	PD=5.4e-07	PS=5.4e-07
MI0<1>/I0<3>/I0<3>/PM1	I0<1>/I0<3>/I0<3>/QB#5	I0<1>/I0<3>/I0<3>/Q#2	VDD#102
+ VDD#68	pmos1v	L=4.5e-08	W=1.2e-07
+ AD=1.8e-14	AS=1.8e-14	PD=5.4e-07	PS=5.4e-07
MI0<1>/I0<3>/I0<1>/PM0	I0<1>/I0<3>/I0<1>/Q#4	I0<1>/I0<3>/I0<1>/QB#2	VDD#36
+ VDD#68	pmos1v	L=4.5e-08	W=1.2e-07
+ AD=1.8e-14	AS=1.8e-14	PD=5.4e-07	PS=5.4e-07
MI0<1>/I0<3>/I0<1>/PM1	I0<1>/I0<3>/I0<1>/QB#5	I0<1>/I0<3>/I0<1>/Q#2	VDD#104
+ VDD#68	pmos1v	L=4.5e-08	W=1.2e-07
+ AD=1.8e-14	AS=1.8e-14	PD=5.4e-07	PS=5.4e-07
MI0<1>/I0<3>/I0<2>/PM0	I0<1>/I0<3>/I0<2>/Q#4	I0<1>/I0<3>/I0<2>/QB	VDD#36
+ VDD#68	pmos1v	L=4.5e-08	W=1.2e-07
+ AD=1.8e-14	AS=1.8e-14	PD=5.4e-07	PS=5.4e-07
MI0<1>/I0<3>/I0<2>/PM1	I0<1>/I0<3>/I0<2>/QB#5	I0<1>/I0<3>/I0<2>/Q#2	VDD#102
+ VDD#68	pmos1v	L=4.5e-08	W=1.2e-07
+ AD=1.8e-14	AS=1.8e-14	PD=5.4e-07	PS=5.4e-07
MI0<1>/I0<3>/I0<0>/PM0	I0<1>/I0<3>/I0<0>/Q#4	I0<1>/I0<3>/I0<0>/QB	VDD#38
+ VDD#68	pmos1v	L=4.5e-08	W=1.2e-07
+ AD=1.8e-14	AS=1.8e-14	PD=5.4e-07	PS=5.4e-07
MI0<1>/I0<3>/I0<0>/PM1	I0<1>/I0<3>/I0<0>/QB#5	I0<1>/I0<3>/I0<0>/Q#2	VDD#104
+ VDD#68	pmos1v	L=4.5e-08	W=1.2e-07
+ AD=1.8e-14	AS=1.8e-14	PD=5.4e-07	PS=5.4e-07
MI0<1>/I0<2>/I0<3>/PM0	I0<1>/I0<2>/I0<3>/Q#4	I0<1>/I0<2>/I0<3>/QB#2	VDD#38
+ VDD#68	pmos1v	L=4.5e-08	W=1.2e-07
+ AD=1.8e-14	AS=1.8e-14	PD=5.4e-07	PS=5.4e-07
MI0<1>/I0<2>/I0<3>/PM1	I0<1>/I0<2>/I0<3>/QB#5	I0<1>/I0<2>/I0<3>/Q#2	VDD#106
+ VDD#68	pmos1v	L=4.5e-08	W=1.2e-07
+ AD=1.8e-14	AS=1.8e-14	PD=5.4e-07	PS=5.4e-07
MI0<1>/I0<2>/I0<1>/PM0	I0<1>/I0<2>/I0<1>/Q#4	I0<1>/I0<2>/I0<1>/QB#2	VDD#40
+ VDD#68	pmos1v	L=4.5e-08	W=1.2e-07
+ AD=1.8e-14	AS=1.8e-14	PD=5.4e-07	PS=5.4e-07
MI0<1>/I0<2>/I0<1>/PM1	I0<1>/I0<2>/I0<1>/QB#5	I0<1>/I0<2>/I0<1>/Q#2	VDD#108
+ VDD#68	pmos1v	L=4.5e-08	W=1.2e-07
+ AD=1.8e-14	AS=1.8e-14	PD=5.4e-07	PS=5.4e-07
MI0<1>/I0<2>/I0<2>/PM0	I0<1>/I0<2>/I0<2>/Q#4	I0<1>/I0<2>/I0<2>/QB	VDD#40
+ VDD#68	pmos1v	L=4.5e-08	W=1.2e-07
+ AD=1.8e-14	AS=1.8e-14	PD=5.4e-07	PS=5.4e-07
MI0<1>/I0<2>/I0<2>/PM1	I0<1>/I0<2>/I0<2>/QB#5	I0<1>/I0<2>/I0<2>/Q#2	VDD#106
+ VDD#68	pmos1v	L=4.5e-08	W=1.2e-07
+ AD=1.8e-14	AS=1.8e-14	PD=5.4e-07	PS=5.4e-07
MI0<1>/I0<2>/I0<0>/PM0	I0<1>/I0<2>/I0<0>/Q#4	I0<1>/I0<2>/I0<0>/QB	VDD#42
+ VDD#68	pmos1v	L=4.5e-08	W=1.2e-07
+ AD=1.8e-14	AS=1.8e-14	PD=5.4e-07	PS=5.4e-07
MI0<1>/I0<2>/I0<0>/PM1	I0<1>/I0<2>/I0<0>/QB#5	I0<1>/I0<2>/I0<0>/Q#2	VDD#108
+ VDD#68	pmos1v	L=4.5e-08	W=1.2e-07
+ AD=1.8e-14	AS=1.8e-14	PD=5.4e-07	PS=5.4e-07
MI0<1>/I0<1>/I0<3>/PM0	I0<1>/I0<1>/I0<3>/Q#4	I0<1>/I0<1>/I0<3>/QB#2	VDD#42
+ VDD#68	pmos1v	L=4.5e-08	W=1.2e-07
+ AD=1.8e-14	AS=1.8e-14	PD=5.4e-07	PS=5.4e-07
MI0<1>/I0<1>/I0<3>/PM1	I0<1>/I0<1>/I0<3>/QB#5	I0<1>/I0<1>/I0<3>/Q#2	VDD#110
+ VDD#68	pmos1v	L=4.5e-08	W=1.2e-07
+ AD=1.8e-14	AS=1.8e-14	PD=5.4e-07	PS=5.4e-07
MI0<1>/I0<1>/I0<1>/PM0	I0<1>/I0<1>/I0<1>/Q#4	I0<1>/I0<1>/I0<1>/QB#2	VDD#44
+ VDD#68	pmos1v	L=4.5e-08	W=1.2e-07
+ AD=1.8e-14	AS=1.8e-14	PD=5.4e-07	PS=5.4e-07
MI0<1>/I0<1>/I0<1>/PM1	I0<1>/I0<1>/I0<1>/QB#5	I0<1>/I0<1>/I0<1>/Q#2	VDD#112
+ VDD#68	pmos1v	L=4.5e-08	W=1.2e-07
+ AD=1.8e-14	AS=1.8e-14	PD=5.4e-07	PS=5.4e-07
MI0<1>/I0<1>/I0<2>/PM0	I0<1>/I0<1>/I0<2>/Q#4	I0<1>/I0<1>/I0<2>/QB	VDD#44
+ VDD#68	pmos1v	L=4.5e-08	W=1.2e-07
+ AD=1.8e-14	AS=1.8e-14	PD=5.4e-07	PS=5.4e-07
MI0<1>/I0<1>/I0<2>/PM1	I0<1>/I0<1>/I0<2>/QB#5	I0<1>/I0<1>/I0<2>/Q#2	VDD#110
+ VDD#68	pmos1v	L=4.5e-08	W=1.2e-07
+ AD=1.8e-14	AS=1.8e-14	PD=5.4e-07	PS=5.4e-07
MI0<1>/I0<1>/I0<0>/PM0	I0<1>/I0<1>/I0<0>/Q#4	I0<1>/I0<1>/I0<0>/QB	VDD#46
+ VDD#68	pmos1v	L=4.5e-08	W=1.2e-07
+ AD=1.8e-14	AS=1.8e-14	PD=5.4e-07	PS=5.4e-07
MI0<1>/I0<1>/I0<0>/PM1	I0<1>/I0<1>/I0<0>/QB#5	I0<1>/I0<1>/I0<0>/Q#2	VDD#112
+ VDD#68	pmos1v	L=4.5e-08	W=1.2e-07
+ AD=1.8e-14	AS=1.8e-14	PD=5.4e-07	PS=5.4e-07
MI0<1>/I0<0>/I0<3>/PM0	I0<1>/I0<0>/I0<3>/Q#4	I0<1>/I0<0>/I0<3>/QB#2	VDD#46
+ VDD#68	pmos1v	L=4.5e-08	W=1.2e-07
+ AD=1.8e-14	AS=1.8e-14	PD=5.4e-07	PS=5.4e-07
MI0<1>/I0<0>/I0<3>/PM1	I0<1>/I0<0>/I0<3>/QB#5	I0<1>/I0<0>/I0<3>/Q#2	VDD#114
+ VDD#68	pmos1v	L=4.5e-08	W=1.2e-07
+ AD=1.8e-14	AS=1.8e-14	PD=5.4e-07	PS=5.4e-07
MI0<1>/I0<0>/I0<1>/PM0	I0<1>/I0<0>/I0<1>/Q#4	I0<1>/I0<0>/I0<1>/QB#2	VDD#48
+ VDD#68	pmos1v	L=4.5e-08	W=1.2e-07
+ AD=1.8e-14	AS=1.8e-14	PD=5.4e-07	PS=5.4e-07
MI0<1>/I0<0>/I0<1>/PM1	I0<1>/I0<0>/I0<1>/QB#5	I0<1>/I0<0>/I0<1>/Q#2	VDD#116
+ VDD#68	pmos1v	L=4.5e-08	W=1.2e-07
+ AD=1.8e-14	AS=1.8e-14	PD=5.4e-07	PS=5.4e-07
MI0<1>/I0<0>/I0<2>/PM0	I0<1>/I0<0>/I0<2>/Q#4	I0<1>/I0<0>/I0<2>/QB	VDD#48
+ VDD#68	pmos1v	L=4.5e-08	W=1.2e-07
+ AD=1.8e-14	AS=1.8e-14	PD=5.4e-07	PS=5.4e-07
MI0<1>/I0<0>/I0<2>/PM1	I0<1>/I0<0>/I0<2>/QB#5	I0<1>/I0<0>/I0<2>/Q#2	VDD#114
+ VDD#68	pmos1v	L=4.5e-08	W=1.2e-07
+ AD=1.8e-14	AS=1.8e-14	PD=5.4e-07	PS=5.4e-07
MI0<1>/I0<0>/I0<0>/PM0	I0<1>/I0<0>/I0<0>/Q#4	I0<1>/I0<0>/I0<0>/QB	VDD#50
+ VDD#68	pmos1v	L=4.5e-08	W=1.2e-07
+ AD=1.8e-14	AS=1.8e-14	PD=5.4e-07	PS=5.4e-07
MI0<1>/I0<0>/I0<0>/PM1	I0<1>/I0<0>/I0<0>/QB#5	I0<1>/I0<0>/I0<0>/Q#2	VDD#116
+ VDD#68	pmos1v	L=4.5e-08	W=1.2e-07
+ AD=1.8e-14	AS=1.8e-14	PD=5.4e-07	PS=5.4e-07
MI0<0>/I0<3>/I0<3>/PM0	I0<0>/I0<3>/I0<3>/Q#4	I0<0>/I0<3>/I0<3>/QB#2	VDD#50
+ VDD#68	pmos1v	L=4.5e-08	W=1.2e-07
+ AD=1.8e-14	AS=1.8e-14	PD=5.4e-07	PS=5.4e-07
MI0<0>/I0<3>/I0<3>/PM1	I0<0>/I0<3>/I0<3>/QB#5	I0<0>/I0<3>/I0<3>/Q#2	VDD#118
+ VDD#68	pmos1v	L=4.5e-08	W=1.2e-07
+ AD=1.8e-14	AS=1.8e-14	PD=5.4e-07	PS=5.4e-07
MI0<0>/I0<3>/I0<1>/PM0	I0<0>/I0<3>/I0<1>/Q#4	I0<0>/I0<3>/I0<1>/QB#2	VDD#52
+ VDD#68	pmos1v	L=4.5e-08	W=1.2e-07
+ AD=1.8e-14	AS=1.8e-14	PD=5.4e-07	PS=5.4e-07
MI0<0>/I0<3>/I0<1>/PM1	I0<0>/I0<3>/I0<1>/QB#5	I0<0>/I0<3>/I0<1>/Q#2	VDD#120
+ VDD#68	pmos1v	L=4.5e-08	W=1.2e-07
+ AD=1.8e-14	AS=1.8e-14	PD=5.4e-07	PS=5.4e-07
MI0<0>/I0<3>/I0<2>/PM0	I0<0>/I0<3>/I0<2>/Q#4	I0<0>/I0<3>/I0<2>/QB	VDD#52
+ VDD#68	pmos1v	L=4.5e-08	W=1.2e-07
+ AD=1.8e-14	AS=1.8e-14	PD=5.4e-07	PS=5.4e-07
MI0<0>/I0<3>/I0<2>/PM1	I0<0>/I0<3>/I0<2>/QB#5	I0<0>/I0<3>/I0<2>/Q#2	VDD#118
+ VDD#68	pmos1v	L=4.5e-08	W=1.2e-07
+ AD=1.8e-14	AS=1.8e-14	PD=5.4e-07	PS=5.4e-07
MI0<0>/I0<3>/I0<0>/PM0	I0<0>/I0<3>/I0<0>/Q#4	I0<0>/I0<3>/I0<0>/QB	VDD#54
+ VDD#68	pmos1v	L=4.5e-08	W=1.2e-07
+ AD=1.8e-14	AS=1.8e-14	PD=5.4e-07	PS=5.4e-07
MI0<0>/I0<3>/I0<0>/PM1	I0<0>/I0<3>/I0<0>/QB#5	I0<0>/I0<3>/I0<0>/Q#2	VDD#120
+ VDD#68	pmos1v	L=4.5e-08	W=1.2e-07
+ AD=1.8e-14	AS=1.8e-14	PD=5.4e-07	PS=5.4e-07
MI0<0>/I0<2>/I0<3>/PM0	I0<0>/I0<2>/I0<3>/Q#4	I0<0>/I0<2>/I0<3>/QB#2	VDD#54
+ VDD#68	pmos1v	L=4.5e-08	W=1.2e-07
+ AD=1.8e-14	AS=1.8e-14	PD=5.4e-07	PS=5.4e-07
MI0<0>/I0<2>/I0<3>/PM1	I0<0>/I0<2>/I0<3>/QB#5	I0<0>/I0<2>/I0<3>/Q#2	VDD#122
+ VDD#68	pmos1v	L=4.5e-08	W=1.2e-07
+ AD=1.8e-14	AS=1.8e-14	PD=5.4e-07	PS=5.4e-07
MI0<0>/I0<2>/I0<1>/PM0	I0<0>/I0<2>/I0<1>/Q#4	I0<0>/I0<2>/I0<1>/QB#2	VDD#56
+ VDD#68	pmos1v	L=4.5e-08	W=1.2e-07
+ AD=1.8e-14	AS=1.8e-14	PD=5.4e-07	PS=5.4e-07
MI0<0>/I0<2>/I0<1>/PM1	I0<0>/I0<2>/I0<1>/QB#5	I0<0>/I0<2>/I0<1>/Q#2	VDD#124
+ VDD#68	pmos1v	L=4.5e-08	W=1.2e-07
+ AD=1.8e-14	AS=1.8e-14	PD=5.4e-07	PS=5.4e-07
MI0<0>/I0<2>/I0<2>/PM0	I0<0>/I0<2>/I0<2>/Q#4	I0<0>/I0<2>/I0<2>/QB	VDD#56
+ VDD#68	pmos1v	L=4.5e-08	W=1.2e-07
+ AD=1.8e-14	AS=1.8e-14	PD=5.4e-07	PS=5.4e-07
MI0<0>/I0<2>/I0<2>/PM1	I0<0>/I0<2>/I0<2>/QB#5	I0<0>/I0<2>/I0<2>/Q#2	VDD#122
+ VDD#68	pmos1v	L=4.5e-08	W=1.2e-07
+ AD=1.8e-14	AS=1.8e-14	PD=5.4e-07	PS=5.4e-07
MI0<0>/I0<2>/I0<0>/PM0	I0<0>/I0<2>/I0<0>/Q#4	I0<0>/I0<2>/I0<0>/QB	VDD#58
+ VDD#68	pmos1v	L=4.5e-08	W=1.2e-07
+ AD=1.8e-14	AS=1.8e-14	PD=5.4e-07	PS=5.4e-07
MI0<0>/I0<2>/I0<0>/PM1	I0<0>/I0<2>/I0<0>/QB#5	I0<0>/I0<2>/I0<0>/Q#2	VDD#124
+ VDD#68	pmos1v	L=4.5e-08	W=1.2e-07
+ AD=1.8e-14	AS=1.8e-14	PD=5.4e-07	PS=5.4e-07
MI0<0>/I0<1>/I0<3>/PM0	I0<0>/I0<1>/I0<3>/Q#4	I0<0>/I0<1>/I0<3>/QB#2	VDD#58
+ VDD#68	pmos1v	L=4.5e-08	W=1.2e-07
+ AD=1.8e-14	AS=1.8e-14	PD=5.4e-07	PS=5.4e-07
MI0<0>/I0<1>/I0<3>/PM1	I0<0>/I0<1>/I0<3>/QB#5	I0<0>/I0<1>/I0<3>/Q#2	VDD#126
+ VDD#68	pmos1v	L=4.5e-08	W=1.2e-07
+ AD=1.8e-14	AS=1.8e-14	PD=5.4e-07	PS=5.4e-07
MI0<0>/I0<1>/I0<1>/PM0	I0<0>/I0<1>/I0<1>/Q#4	I0<0>/I0<1>/I0<1>/QB#2	VDD#60
+ VDD#68	pmos1v	L=4.5e-08	W=1.2e-07
+ AD=1.8e-14	AS=1.8e-14	PD=5.4e-07	PS=5.4e-07
MI0<0>/I0<1>/I0<1>/PM1	I0<0>/I0<1>/I0<1>/QB#5	I0<0>/I0<1>/I0<1>/Q#2	VDD#128
+ VDD#68	pmos1v	L=4.5e-08	W=1.2e-07
+ AD=1.8e-14	AS=1.8e-14	PD=5.4e-07	PS=5.4e-07
MI0<0>/I0<1>/I0<2>/PM0	I0<0>/I0<1>/I0<2>/Q#4	I0<0>/I0<1>/I0<2>/QB	VDD#60
+ VDD#68	pmos1v	L=4.5e-08	W=1.2e-07
+ AD=1.8e-14	AS=1.8e-14	PD=5.4e-07	PS=5.4e-07
MI0<0>/I0<1>/I0<2>/PM1	I0<0>/I0<1>/I0<2>/QB#5	I0<0>/I0<1>/I0<2>/Q#2	VDD#126
+ VDD#68	pmos1v	L=4.5e-08	W=1.2e-07
+ AD=1.8e-14	AS=1.8e-14	PD=5.4e-07	PS=5.4e-07
MI0<0>/I0<1>/I0<0>/PM0	I0<0>/I0<1>/I0<0>/Q#4	I0<0>/I0<1>/I0<0>/QB	VDD#62
+ VDD#68	pmos1v	L=4.5e-08	W=1.2e-07
+ AD=1.8e-14	AS=1.8e-14	PD=5.4e-07	PS=5.4e-07
MI0<0>/I0<1>/I0<0>/PM1	I0<0>/I0<1>/I0<0>/QB#5	I0<0>/I0<1>/I0<0>/Q#2	VDD#128
+ VDD#68	pmos1v	L=4.5e-08	W=1.2e-07
+ AD=1.8e-14	AS=1.8e-14	PD=5.4e-07	PS=5.4e-07
MI0<0>/I0<0>/I0<3>/PM0	I0<0>/I0<0>/I0<3>/Q#4	I0<0>/I0<0>/I0<3>/QB#2	VDD#62
+ VDD#68	pmos1v	L=4.5e-08	W=1.2e-07
+ AD=1.8e-14	AS=1.8e-14	PD=5.4e-07	PS=5.4e-07
MI0<0>/I0<0>/I0<3>/PM1	I0<0>/I0<0>/I0<3>/QB#5	I0<0>/I0<0>/I0<3>/Q#2	VDD#130
+ VDD#68	pmos1v	L=4.5e-08	W=1.2e-07
+ AD=1.8e-14	AS=1.8e-14	PD=5.4e-07	PS=5.4e-07
MI0<0>/I0<0>/I0<1>/PM0	I0<0>/I0<0>/I0<1>/Q#4	I0<0>/I0<0>/I0<1>/QB#2	VDD#64
+ VDD#68	pmos1v	L=4.5e-08	W=1.2e-07
+ AD=1.8e-14	AS=1.8e-14	PD=5.4e-07	PS=5.4e-07
MI0<0>/I0<0>/I0<1>/PM1	I0<0>/I0<0>/I0<1>/QB#5	I0<0>/I0<0>/I0<1>/Q#2	VDD#132
+ VDD#68	pmos1v	L=4.5e-08	W=1.2e-07
+ AD=1.8e-14	AS=1.8e-14	PD=5.4e-07	PS=5.4e-07
MI0<0>/I0<0>/I0<2>/PM0	I0<0>/I0<0>/I0<2>/Q#4	I0<0>/I0<0>/I0<2>/QB	VDD#64
+ VDD#68	pmos1v	L=4.5e-08	W=1.2e-07
+ AD=1.8e-14	AS=1.8e-14	PD=5.4e-07	PS=5.4e-07
MI0<0>/I0<0>/I0<2>/PM1	I0<0>/I0<0>/I0<2>/QB#5	I0<0>/I0<0>/I0<2>/Q#2	VDD#130
+ VDD#68	pmos1v	L=4.5e-08	W=1.2e-07
+ AD=1.8e-14	AS=1.8e-14	PD=5.4e-07	PS=5.4e-07
MI0<0>/I0<0>/I0<0>/PM0	I0<0>/I0<0>/I0<0>/Q#4	I0<0>/I0<0>/I0<0>/QB	VDD#66
+ VDD#68	pmos1v	L=4.5e-08	W=1.2e-07
+ AD=1.68e-14	AS=1.68e-14	PD=5.2e-07	PS=5.2e-07
MI0<0>/I0<0>/I0<0>/PM1	I0<0>/I0<0>/I0<0>/QB#5	I0<0>/I0<0>/I0<0>/Q#2	VDD#132
+ VDD#68	pmos1v	L=4.5e-08	W=1.2e-07
+ AD=1.8e-14	AS=1.8e-14	PD=5.4e-07	PS=5.4e-07
*
*
*       RESISTOR AND CAP/DIODE CARDS
*
Rl1	WL<63>#1	WL<63>#2	  104.7064	$poly_conn
Rl2	WL<62>#1	WL<62>#2	  104.7064	$poly_conn
Rl3	WL<61>#1	WL<61>#2	  104.7064	$poly_conn
Rl4	WL<60>#1	WL<60>#2	  104.7064	$poly_conn
Rl5	WL<59>#1	WL<59>#2	  104.7064	$poly_conn
Rl6	WL<58>#1	WL<58>#2	  104.7064	$poly_conn
Rl7	WL<57>#1	WL<57>#2	  104.7064	$poly_conn
Rl8	WL<56>#1	WL<56>#2	  104.7064	$poly_conn
Rl9	WL<55>#1	WL<55>#2	  104.7064	$poly_conn
Rl10	WL<54>#1	WL<54>#2	  104.7064	$poly_conn
Rl11	WL<53>#1	WL<53>#2	  104.7064	$poly_conn
Rl12	WL<52>#1	WL<52>#2	  104.7064	$poly_conn
Rl13	WL<51>#1	WL<51>#2	  104.7064	$poly_conn
Rl14	WL<50>#1	WL<50>#2	  104.7064	$poly_conn
Rl15	WL<49>#1	WL<49>#2	  104.7064	$poly_conn
Rl16	WL<48>#1	WL<48>#2	  104.7064	$poly_conn
Rl17	WL<47>#1	WL<47>#2	  104.7064	$poly_conn
Rl18	WL<46>#1	WL<46>#2	  104.7064	$poly_conn
Rl19	WL<45>#1	WL<45>#2	  104.7064	$poly_conn
Rl20	WL<44>#1	WL<44>#2	  104.7064	$poly_conn
Rl21	WL<43>#1	WL<43>#2	  104.7064	$poly_conn
Rl22	WL<42>#1	WL<42>#2	  104.7064	$poly_conn
Rl23	WL<41>#1	WL<41>#2	  104.7064	$poly_conn
Rl24	WL<40>#1	WL<40>#2	  104.7064	$poly_conn
Rl25	WL<39>#1	WL<39>#2	  104.7064	$poly_conn
Rl26	WL<38>#1	WL<38>#2	  104.7064	$poly_conn
Rl27	WL<37>#1	WL<37>#2	  104.7064	$poly_conn
Rl28	WL<36>#1	WL<36>#2	  104.7064	$poly_conn
Rl29	WL<35>#1	WL<35>#2	  104.7064	$poly_conn
Rl30	WL<34>#1	WL<34>#2	  104.7064	$poly_conn
Rl31	WL<33>#1	WL<33>#2	  104.7064	$poly_conn
Rl32	WL<32>#1	WL<32>#2	  104.7064	$poly_conn
Rl33	WL<31>#1	WL<31>#2	  104.7064	$poly_conn
Rl34	WL<30>#1	WL<30>#2	  104.7064	$poly_conn
Rl35	WL<29>#1	WL<29>#2	  104.7064	$poly_conn
Rl36	WL<28>#1	WL<28>#2	  104.7064	$poly_conn
Rl37	WL<27>#1	WL<27>#2	  104.7064	$poly_conn
Rl38	WL<26>#1	WL<26>#2	  104.7064	$poly_conn
Rl39	WL<25>#1	WL<25>#2	  104.7064	$poly_conn
Rl40	WL<24>#1	WL<24>#2	  104.7064	$poly_conn
Rl41	WL<23>#1	WL<23>#2	  104.7064	$poly_conn
Rl42	WL<22>#1	WL<22>#2	  104.7064	$poly_conn
Rl43	WL<21>#1	WL<21>#2	  104.7064	$poly_conn
Rl44	WL<20>#1	WL<20>#2	  104.7064	$poly_conn
Rl45	WL<19>#1	WL<19>#2	  104.7064	$poly_conn
Rl46	WL<18>#1	WL<18>#2	  104.7064	$poly_conn
Rl47	WL<17>#1	WL<17>#2	  104.7064	$poly_conn
Rl48	WL<16>#1	WL<16>#2	  104.7064	$poly_conn
Rl49	WL<15>#1	WL<15>#2	  104.7064	$poly_conn
Rl50	WL<14>#1	WL<14>#2	  104.7064	$poly_conn
Rl51	WL<13>#1	WL<13>#2	  104.7064	$poly_conn
Rl52	WL<12>#1	WL<12>#2	  104.7064	$poly_conn
Rl53	WL<11>#1	WL<11>#2	  104.7064	$poly_conn
Rl54	WL<10>#1	WL<10>#2	  104.7064	$poly_conn
Rl55	WL<9>#1	WL<9>#2	  104.7064	$poly_conn
Rl56	WL<8>#1	WL<8>#2	  104.7064	$poly_conn
Rl57	WL<7>#1	WL<7>#2	  104.7064	$poly_conn
Rl58	WL<6>#1	WL<6>#2	  104.7064	$poly_conn
Rl59	WL<5>#1	WL<5>#2	  104.7064	$poly_conn
Rl60	WL<4>#1	WL<4>#2	  104.7064	$poly_conn
Rl61	WL<3>#1	WL<3>#2	  104.7064	$poly_conn
Rl62	WL<2>#1	WL<2>#2	  104.7064	$poly_conn
Rl63	WL<1>#1	WL<1>#2	  104.7064	$poly_conn
Rl64	WL<0>#1	WL<0>#2	  104.7064	$poly_conn
Rl65	I0<3>/I0<3>/I0<3>/QB	I0<3>/I0<3>/I0<3>/QB#2	   90.3330
+ $poly_conn
Rl66	I0<3>/I0<3>/I0<3>/QB#2	I0<3>/I0<3>/I0<3>/QB#3	   56.4103
+ $poly_conn
Rl67	I0<3>/I0<3>/I0<2>/QB	I0<3>/I0<3>/I0<2>/QB#2	   56.4103
+ $poly_conn
Rl68	I0<3>/I0<3>/I0<2>/QB	I0<3>/I0<3>/I0<2>/QB#3	   90.3330
+ $poly_conn
Rl69	I0<3>/I0<3>/I0<1>/QB	I0<3>/I0<3>/I0<1>/QB#2	   90.3330
+ $poly_conn
Rl70	I0<3>/I0<3>/I0<1>/QB#2	I0<3>/I0<3>/I0<1>/QB#3	   56.4103
+ $poly_conn
Rl71	I0<3>/I0<3>/I0<0>/QB	I0<3>/I0<3>/I0<0>/QB#2	   56.4103
+ $poly_conn
Rl72	I0<3>/I0<3>/I0<0>/QB	I0<3>/I0<3>/I0<0>/QB#3	   90.3330
+ $poly_conn
Rl73	I0<3>/I0<2>/I0<3>/QB	I0<3>/I0<2>/I0<3>/QB#2	   90.3330
+ $poly_conn
Rl74	I0<3>/I0<2>/I0<3>/QB#2	I0<3>/I0<2>/I0<3>/QB#3	   56.4103
+ $poly_conn
Rl75	I0<3>/I0<2>/I0<2>/QB	I0<3>/I0<2>/I0<2>/QB#2	   56.4103
+ $poly_conn
Rl76	I0<3>/I0<2>/I0<2>/QB	I0<3>/I0<2>/I0<2>/QB#3	   90.3330
+ $poly_conn
Rl77	I0<3>/I0<2>/I0<1>/QB	I0<3>/I0<2>/I0<1>/QB#2	   90.3330
+ $poly_conn
Rl78	I0<3>/I0<2>/I0<1>/QB#2	I0<3>/I0<2>/I0<1>/QB#3	   56.4103
+ $poly_conn
Rl79	I0<3>/I0<2>/I0<0>/QB	I0<3>/I0<2>/I0<0>/QB#2	   56.4103
+ $poly_conn
Rl80	I0<3>/I0<2>/I0<0>/QB	I0<3>/I0<2>/I0<0>/QB#3	   90.3330
+ $poly_conn
Rl81	I0<3>/I0<1>/I0<3>/QB	I0<3>/I0<1>/I0<3>/QB#2	   90.3330
+ $poly_conn
Rl82	I0<3>/I0<1>/I0<3>/QB#2	I0<3>/I0<1>/I0<3>/QB#3	   56.4103
+ $poly_conn
Rl83	I0<3>/I0<1>/I0<2>/QB	I0<3>/I0<1>/I0<2>/QB#2	   56.4103
+ $poly_conn
Rl84	I0<3>/I0<1>/I0<2>/QB	I0<3>/I0<1>/I0<2>/QB#3	   90.3330
+ $poly_conn
Rl85	I0<3>/I0<1>/I0<1>/QB	I0<3>/I0<1>/I0<1>/QB#2	   90.3330
+ $poly_conn
Rl86	I0<3>/I0<1>/I0<1>/QB#2	I0<3>/I0<1>/I0<1>/QB#3	   56.4103
+ $poly_conn
Rl87	I0<3>/I0<1>/I0<0>/QB	I0<3>/I0<1>/I0<0>/QB#2	   56.4103
+ $poly_conn
Rl88	I0<3>/I0<1>/I0<0>/QB	I0<3>/I0<1>/I0<0>/QB#3	   90.3330
+ $poly_conn
Rl89	I0<3>/I0<0>/I0<3>/QB	I0<3>/I0<0>/I0<3>/QB#2	   90.3330
+ $poly_conn
Rl90	I0<3>/I0<0>/I0<3>/QB#2	I0<3>/I0<0>/I0<3>/QB#3	   56.4103
+ $poly_conn
Rl91	I0<3>/I0<0>/I0<2>/QB	I0<3>/I0<0>/I0<2>/QB#2	   56.4103
+ $poly_conn
Rl92	I0<3>/I0<0>/I0<2>/QB	I0<3>/I0<0>/I0<2>/QB#3	   90.3330
+ $poly_conn
Rl93	I0<3>/I0<0>/I0<1>/QB	I0<3>/I0<0>/I0<1>/QB#2	   90.3330
+ $poly_conn
Rl94	I0<3>/I0<0>/I0<1>/QB#2	I0<3>/I0<0>/I0<1>/QB#3	   56.4103
+ $poly_conn
Rl95	I0<3>/I0<0>/I0<0>/QB	I0<3>/I0<0>/I0<0>/QB#2	   56.4103
+ $poly_conn
Rl96	I0<3>/I0<0>/I0<0>/QB	I0<3>/I0<0>/I0<0>/QB#3	   90.3330
+ $poly_conn
Rl97	I0<2>/I0<3>/I0<3>/QB	I0<2>/I0<3>/I0<3>/QB#2	   90.3330
+ $poly_conn
Rl98	I0<2>/I0<3>/I0<3>/QB#2	I0<2>/I0<3>/I0<3>/QB#3	   56.4103
+ $poly_conn
Rl99	I0<2>/I0<3>/I0<2>/QB	I0<2>/I0<3>/I0<2>/QB#2	   56.4103
+ $poly_conn
Rl100	I0<2>/I0<3>/I0<2>/QB	I0<2>/I0<3>/I0<2>/QB#3	   90.3330
+ $poly_conn
Rl101	I0<2>/I0<3>/I0<1>/QB	I0<2>/I0<3>/I0<1>/QB#2	   90.3330
+ $poly_conn
Rl102	I0<2>/I0<3>/I0<1>/QB#2	I0<2>/I0<3>/I0<1>/QB#3	   56.4103
+ $poly_conn
Rl103	I0<2>/I0<3>/I0<0>/QB	I0<2>/I0<3>/I0<0>/QB#2	   56.4103
+ $poly_conn
Rl104	I0<2>/I0<3>/I0<0>/QB	I0<2>/I0<3>/I0<0>/QB#3	   90.3330
+ $poly_conn
Rl105	I0<2>/I0<2>/I0<3>/QB	I0<2>/I0<2>/I0<3>/QB#2	   90.3330
+ $poly_conn
Rl106	I0<2>/I0<2>/I0<3>/QB#2	I0<2>/I0<2>/I0<3>/QB#3	   56.4103
+ $poly_conn
Rl107	I0<2>/I0<2>/I0<2>/QB	I0<2>/I0<2>/I0<2>/QB#2	   56.4103
+ $poly_conn
Rl108	I0<2>/I0<2>/I0<2>/QB	I0<2>/I0<2>/I0<2>/QB#3	   90.3330
+ $poly_conn
Rl109	I0<2>/I0<2>/I0<1>/QB	I0<2>/I0<2>/I0<1>/QB#2	   90.3330
+ $poly_conn
Rl110	I0<2>/I0<2>/I0<1>/QB#2	I0<2>/I0<2>/I0<1>/QB#3	   56.4103
+ $poly_conn
Rl111	I0<2>/I0<2>/I0<0>/QB	I0<2>/I0<2>/I0<0>/QB#2	   56.4103
+ $poly_conn
Rl112	I0<2>/I0<2>/I0<0>/QB	I0<2>/I0<2>/I0<0>/QB#3	   90.3330
+ $poly_conn
Rl113	I0<2>/I0<1>/I0<3>/QB	I0<2>/I0<1>/I0<3>/QB#2	   90.3330
+ $poly_conn
Rl114	I0<2>/I0<1>/I0<3>/QB#2	I0<2>/I0<1>/I0<3>/QB#3	   56.4103
+ $poly_conn
Rl115	I0<2>/I0<1>/I0<2>/QB	I0<2>/I0<1>/I0<2>/QB#2	   56.4103
+ $poly_conn
Rl116	I0<2>/I0<1>/I0<2>/QB	I0<2>/I0<1>/I0<2>/QB#3	   90.3330
+ $poly_conn
Rl117	I0<2>/I0<1>/I0<1>/QB	I0<2>/I0<1>/I0<1>/QB#2	   90.3330
+ $poly_conn
Rl118	I0<2>/I0<1>/I0<1>/QB#2	I0<2>/I0<1>/I0<1>/QB#3	   56.4103
+ $poly_conn
Rl119	I0<2>/I0<1>/I0<0>/QB	I0<2>/I0<1>/I0<0>/QB#2	   56.4103
+ $poly_conn
Rl120	I0<2>/I0<1>/I0<0>/QB	I0<2>/I0<1>/I0<0>/QB#3	   90.3330
+ $poly_conn
Rl121	I0<2>/I0<0>/I0<3>/QB	I0<2>/I0<0>/I0<3>/QB#2	   90.3330
+ $poly_conn
Rl122	I0<2>/I0<0>/I0<3>/QB#2	I0<2>/I0<0>/I0<3>/QB#3	   56.4103
+ $poly_conn
Rl123	I0<2>/I0<0>/I0<2>/QB	I0<2>/I0<0>/I0<2>/QB#2	   56.4103
+ $poly_conn
Rl124	I0<2>/I0<0>/I0<2>/QB	I0<2>/I0<0>/I0<2>/QB#3	   90.3330
+ $poly_conn
Rl125	I0<2>/I0<0>/I0<1>/QB	I0<2>/I0<0>/I0<1>/QB#2	   90.3330
+ $poly_conn
Rl126	I0<2>/I0<0>/I0<1>/QB#2	I0<2>/I0<0>/I0<1>/QB#3	   56.4103
+ $poly_conn
Rl127	I0<2>/I0<0>/I0<0>/QB	I0<2>/I0<0>/I0<0>/QB#2	   56.4103
+ $poly_conn
Rl128	I0<2>/I0<0>/I0<0>/QB	I0<2>/I0<0>/I0<0>/QB#3	   90.3330
+ $poly_conn
Rl129	I0<1>/I0<3>/I0<3>/QB	I0<1>/I0<3>/I0<3>/QB#2	   90.3330
+ $poly_conn
Rl130	I0<1>/I0<3>/I0<3>/QB#2	I0<1>/I0<3>/I0<3>/QB#3	   56.4103
+ $poly_conn
Rl131	I0<1>/I0<3>/I0<2>/QB	I0<1>/I0<3>/I0<2>/QB#2	   56.4103
+ $poly_conn
Rl132	I0<1>/I0<3>/I0<2>/QB	I0<1>/I0<3>/I0<2>/QB#3	   90.3330
+ $poly_conn
Rl133	I0<1>/I0<3>/I0<1>/QB	I0<1>/I0<3>/I0<1>/QB#2	   90.3330
+ $poly_conn
Rl134	I0<1>/I0<3>/I0<1>/QB#2	I0<1>/I0<3>/I0<1>/QB#3	   56.4103
+ $poly_conn
Rl135	I0<1>/I0<3>/I0<0>/QB	I0<1>/I0<3>/I0<0>/QB#2	   56.4103
+ $poly_conn
Rl136	I0<1>/I0<3>/I0<0>/QB	I0<1>/I0<3>/I0<0>/QB#3	   90.3330
+ $poly_conn
Rl137	I0<1>/I0<2>/I0<3>/QB	I0<1>/I0<2>/I0<3>/QB#2	   90.3330
+ $poly_conn
Rl138	I0<1>/I0<2>/I0<3>/QB#2	I0<1>/I0<2>/I0<3>/QB#3	   56.4103
+ $poly_conn
Rl139	I0<1>/I0<2>/I0<2>/QB	I0<1>/I0<2>/I0<2>/QB#2	   56.4103
+ $poly_conn
Rl140	I0<1>/I0<2>/I0<2>/QB	I0<1>/I0<2>/I0<2>/QB#3	   90.3330
+ $poly_conn
Rl141	I0<1>/I0<2>/I0<1>/QB	I0<1>/I0<2>/I0<1>/QB#2	   90.3330
+ $poly_conn
Rl142	I0<1>/I0<2>/I0<1>/QB#2	I0<1>/I0<2>/I0<1>/QB#3	   56.4103
+ $poly_conn
Rl143	I0<1>/I0<2>/I0<0>/QB	I0<1>/I0<2>/I0<0>/QB#2	   56.4103
+ $poly_conn
Rl144	I0<1>/I0<2>/I0<0>/QB	I0<1>/I0<2>/I0<0>/QB#3	   90.3330
+ $poly_conn
Rl145	I0<1>/I0<1>/I0<3>/QB	I0<1>/I0<1>/I0<3>/QB#2	   90.3330
+ $poly_conn
Rl146	I0<1>/I0<1>/I0<3>/QB#2	I0<1>/I0<1>/I0<3>/QB#3	   56.4103
+ $poly_conn
Rl147	I0<1>/I0<1>/I0<2>/QB	I0<1>/I0<1>/I0<2>/QB#2	   56.4103
+ $poly_conn
Rl148	I0<1>/I0<1>/I0<2>/QB	I0<1>/I0<1>/I0<2>/QB#3	   90.3330
+ $poly_conn
Rl149	I0<1>/I0<1>/I0<1>/QB	I0<1>/I0<1>/I0<1>/QB#2	   90.3330
+ $poly_conn
Rl150	I0<1>/I0<1>/I0<1>/QB#2	I0<1>/I0<1>/I0<1>/QB#3	   56.4103
+ $poly_conn
Rl151	I0<1>/I0<1>/I0<0>/QB	I0<1>/I0<1>/I0<0>/QB#2	   56.4103
+ $poly_conn
Rl152	I0<1>/I0<1>/I0<0>/QB	I0<1>/I0<1>/I0<0>/QB#3	   90.3330
+ $poly_conn
Rl153	I0<1>/I0<0>/I0<3>/QB	I0<1>/I0<0>/I0<3>/QB#2	   90.3330
+ $poly_conn
Rl154	I0<1>/I0<0>/I0<3>/QB#2	I0<1>/I0<0>/I0<3>/QB#3	   56.4103
+ $poly_conn
Rl155	I0<1>/I0<0>/I0<2>/QB	I0<1>/I0<0>/I0<2>/QB#2	   56.4103
+ $poly_conn
Rl156	I0<1>/I0<0>/I0<2>/QB	I0<1>/I0<0>/I0<2>/QB#3	   90.3330
+ $poly_conn
Rl157	I0<1>/I0<0>/I0<1>/QB	I0<1>/I0<0>/I0<1>/QB#2	   90.3330
+ $poly_conn
Rl158	I0<1>/I0<0>/I0<1>/QB#2	I0<1>/I0<0>/I0<1>/QB#3	   56.4103
+ $poly_conn
Rl159	I0<1>/I0<0>/I0<0>/QB	I0<1>/I0<0>/I0<0>/QB#2	   56.4103
+ $poly_conn
Rl160	I0<1>/I0<0>/I0<0>/QB	I0<1>/I0<0>/I0<0>/QB#3	   90.3330
+ $poly_conn
Rl161	I0<0>/I0<3>/I0<3>/QB	I0<0>/I0<3>/I0<3>/QB#2	   90.3330
+ $poly_conn
Rl162	I0<0>/I0<3>/I0<3>/QB#2	I0<0>/I0<3>/I0<3>/QB#3	   56.4103
+ $poly_conn
Rl163	I0<0>/I0<3>/I0<2>/QB	I0<0>/I0<3>/I0<2>/QB#2	   56.4103
+ $poly_conn
Rl164	I0<0>/I0<3>/I0<2>/QB	I0<0>/I0<3>/I0<2>/QB#3	   90.3330
+ $poly_conn
Rl165	I0<0>/I0<3>/I0<1>/QB	I0<0>/I0<3>/I0<1>/QB#2	   90.3330
+ $poly_conn
Rl166	I0<0>/I0<3>/I0<1>/QB#2	I0<0>/I0<3>/I0<1>/QB#3	   56.4103
+ $poly_conn
Rl167	I0<0>/I0<3>/I0<0>/QB	I0<0>/I0<3>/I0<0>/QB#2	   56.4103
+ $poly_conn
Rl168	I0<0>/I0<3>/I0<0>/QB	I0<0>/I0<3>/I0<0>/QB#3	   90.3330
+ $poly_conn
Rl169	I0<0>/I0<2>/I0<3>/QB	I0<0>/I0<2>/I0<3>/QB#2	   90.3330
+ $poly_conn
Rl170	I0<0>/I0<2>/I0<3>/QB#2	I0<0>/I0<2>/I0<3>/QB#3	   56.4103
+ $poly_conn
Rl171	I0<0>/I0<2>/I0<2>/QB	I0<0>/I0<2>/I0<2>/QB#2	   56.4103
+ $poly_conn
Rl172	I0<0>/I0<2>/I0<2>/QB	I0<0>/I0<2>/I0<2>/QB#3	   90.3330
+ $poly_conn
Rl173	I0<0>/I0<2>/I0<1>/QB	I0<0>/I0<2>/I0<1>/QB#2	   90.3330
+ $poly_conn
Rl174	I0<0>/I0<2>/I0<1>/QB#2	I0<0>/I0<2>/I0<1>/QB#3	   56.4103
+ $poly_conn
Rl175	I0<0>/I0<2>/I0<0>/QB	I0<0>/I0<2>/I0<0>/QB#2	   56.4103
+ $poly_conn
Rl176	I0<0>/I0<2>/I0<0>/QB	I0<0>/I0<2>/I0<0>/QB#3	   90.3330
+ $poly_conn
Rl177	I0<0>/I0<1>/I0<3>/QB	I0<0>/I0<1>/I0<3>/QB#2	   90.3330
+ $poly_conn
Rl178	I0<0>/I0<1>/I0<3>/QB#2	I0<0>/I0<1>/I0<3>/QB#3	   56.4103
+ $poly_conn
Rl179	I0<0>/I0<1>/I0<2>/QB	I0<0>/I0<1>/I0<2>/QB#2	   56.4103
+ $poly_conn
Rl180	I0<0>/I0<1>/I0<2>/QB	I0<0>/I0<1>/I0<2>/QB#3	   90.3330
+ $poly_conn
Rl181	I0<0>/I0<1>/I0<1>/QB	I0<0>/I0<1>/I0<1>/QB#2	   90.3330
+ $poly_conn
Rl182	I0<0>/I0<1>/I0<1>/QB#2	I0<0>/I0<1>/I0<1>/QB#3	   56.4103
+ $poly_conn
Rl183	I0<0>/I0<1>/I0<0>/QB	I0<0>/I0<1>/I0<0>/QB#2	   56.4103
+ $poly_conn
Rl184	I0<0>/I0<1>/I0<0>/QB	I0<0>/I0<1>/I0<0>/QB#3	   90.3330
+ $poly_conn
Rl185	I0<0>/I0<0>/I0<3>/QB	I0<0>/I0<0>/I0<3>/QB#2	   90.3330
+ $poly_conn
Rl186	I0<0>/I0<0>/I0<3>/QB#2	I0<0>/I0<0>/I0<3>/QB#3	   56.4103
+ $poly_conn
Rl187	I0<0>/I0<0>/I0<2>/QB	I0<0>/I0<0>/I0<2>/QB#2	   56.4103
+ $poly_conn
Rl188	I0<0>/I0<0>/I0<2>/QB	I0<0>/I0<0>/I0<2>/QB#3	   90.3330
+ $poly_conn
Rl189	I0<0>/I0<0>/I0<1>/QB	I0<0>/I0<0>/I0<1>/QB#2	   90.3330
+ $poly_conn
Rl190	I0<0>/I0<0>/I0<1>/QB#2	I0<0>/I0<0>/I0<1>/QB#3	   56.4103
+ $poly_conn
Rl191	I0<0>/I0<0>/I0<0>/QB	I0<0>/I0<0>/I0<0>/QB#2	   56.4103
+ $poly_conn
Rl192	I0<0>/I0<0>/I0<0>/QB	I0<0>/I0<0>/I0<0>/QB#3	   90.3330
+ $poly_conn
Rl193	I0<3>/I0<3>/I0<3>/Q	I0<3>/I0<3>/I0<3>/Q#2	   56.4103
+ $poly_conn
Rl194	I0<3>/I0<3>/I0<3>/Q#2	I0<3>/I0<3>/I0<3>/Q#3	   90.3330
+ $poly_conn
Rl195	I0<3>/I0<3>/I0<2>/Q	I0<3>/I0<3>/I0<2>/Q#2	   56.4103
+ $poly_conn
Rl196	I0<3>/I0<3>/I0<2>/Q#2	I0<3>/I0<3>/I0<2>/Q#3	   90.3330
+ $poly_conn
Rl197	I0<3>/I0<3>/I0<1>/Q	I0<3>/I0<3>/I0<1>/Q#2	   56.4103
+ $poly_conn
Rl198	I0<3>/I0<3>/I0<1>/Q#2	I0<3>/I0<3>/I0<1>/Q#3	   90.3330
+ $poly_conn
Rl199	I0<3>/I0<3>/I0<0>/Q	I0<3>/I0<3>/I0<0>/Q#2	   56.4103
+ $poly_conn
Rl200	I0<3>/I0<3>/I0<0>/Q#2	I0<3>/I0<3>/I0<0>/Q#3	   90.3330
+ $poly_conn
Rl201	I0<3>/I0<2>/I0<3>/Q	I0<3>/I0<2>/I0<3>/Q#2	   56.4103
+ $poly_conn
Rl202	I0<3>/I0<2>/I0<3>/Q#2	I0<3>/I0<2>/I0<3>/Q#3	   90.3330
+ $poly_conn
Rl203	I0<3>/I0<2>/I0<2>/Q	I0<3>/I0<2>/I0<2>/Q#2	   56.4103
+ $poly_conn
Rl204	I0<3>/I0<2>/I0<2>/Q#2	I0<3>/I0<2>/I0<2>/Q#3	   90.3330
+ $poly_conn
Rl205	I0<3>/I0<2>/I0<1>/Q	I0<3>/I0<2>/I0<1>/Q#2	   56.4103
+ $poly_conn
Rl206	I0<3>/I0<2>/I0<1>/Q#2	I0<3>/I0<2>/I0<1>/Q#3	   90.3330
+ $poly_conn
Rl207	I0<3>/I0<2>/I0<0>/Q	I0<3>/I0<2>/I0<0>/Q#2	   56.4103
+ $poly_conn
Rl208	I0<3>/I0<2>/I0<0>/Q#2	I0<3>/I0<2>/I0<0>/Q#3	   90.3330
+ $poly_conn
Rl209	I0<3>/I0<1>/I0<3>/Q	I0<3>/I0<1>/I0<3>/Q#2	   56.4103
+ $poly_conn
Rl210	I0<3>/I0<1>/I0<3>/Q#2	I0<3>/I0<1>/I0<3>/Q#3	   90.3330
+ $poly_conn
Rl211	I0<3>/I0<1>/I0<2>/Q	I0<3>/I0<1>/I0<2>/Q#2	   56.4103
+ $poly_conn
Rl212	I0<3>/I0<1>/I0<2>/Q#2	I0<3>/I0<1>/I0<2>/Q#3	   90.3330
+ $poly_conn
Rl213	I0<3>/I0<1>/I0<1>/Q	I0<3>/I0<1>/I0<1>/Q#2	   56.4103
+ $poly_conn
Rl214	I0<3>/I0<1>/I0<1>/Q#2	I0<3>/I0<1>/I0<1>/Q#3	   90.3330
+ $poly_conn
Rl215	I0<3>/I0<1>/I0<0>/Q	I0<3>/I0<1>/I0<0>/Q#2	   56.4103
+ $poly_conn
Rl216	I0<3>/I0<1>/I0<0>/Q#2	I0<3>/I0<1>/I0<0>/Q#3	   90.3330
+ $poly_conn
Rl217	I0<3>/I0<0>/I0<3>/Q	I0<3>/I0<0>/I0<3>/Q#2	   56.4103
+ $poly_conn
Rl218	I0<3>/I0<0>/I0<3>/Q#2	I0<3>/I0<0>/I0<3>/Q#3	   90.3330
+ $poly_conn
Rl219	I0<3>/I0<0>/I0<2>/Q	I0<3>/I0<0>/I0<2>/Q#2	   56.4103
+ $poly_conn
Rl220	I0<3>/I0<0>/I0<2>/Q#2	I0<3>/I0<0>/I0<2>/Q#3	   90.3330
+ $poly_conn
Rl221	I0<3>/I0<0>/I0<1>/Q	I0<3>/I0<0>/I0<1>/Q#2	   56.4103
+ $poly_conn
Rl222	I0<3>/I0<0>/I0<1>/Q#2	I0<3>/I0<0>/I0<1>/Q#3	   90.3330
+ $poly_conn
Rl223	I0<3>/I0<0>/I0<0>/Q	I0<3>/I0<0>/I0<0>/Q#2	   56.4103
+ $poly_conn
Rl224	I0<3>/I0<0>/I0<0>/Q#2	I0<3>/I0<0>/I0<0>/Q#3	   90.3330
+ $poly_conn
Rl225	I0<2>/I0<3>/I0<3>/Q	I0<2>/I0<3>/I0<3>/Q#2	   56.4103
+ $poly_conn
Rl226	I0<2>/I0<3>/I0<3>/Q#2	I0<2>/I0<3>/I0<3>/Q#3	   90.3330
+ $poly_conn
Rl227	I0<2>/I0<3>/I0<2>/Q	I0<2>/I0<3>/I0<2>/Q#2	   56.4103
+ $poly_conn
Rl228	I0<2>/I0<3>/I0<2>/Q#2	I0<2>/I0<3>/I0<2>/Q#3	   90.3330
+ $poly_conn
Rl229	I0<2>/I0<3>/I0<1>/Q	I0<2>/I0<3>/I0<1>/Q#2	   56.4103
+ $poly_conn
Rl230	I0<2>/I0<3>/I0<1>/Q#2	I0<2>/I0<3>/I0<1>/Q#3	   90.3330
+ $poly_conn
Rl231	I0<2>/I0<3>/I0<0>/Q	I0<2>/I0<3>/I0<0>/Q#2	   56.4103
+ $poly_conn
Rl232	I0<2>/I0<3>/I0<0>/Q#2	I0<2>/I0<3>/I0<0>/Q#3	   90.3330
+ $poly_conn
Rl233	I0<2>/I0<2>/I0<3>/Q	I0<2>/I0<2>/I0<3>/Q#2	   56.4103
+ $poly_conn
Rl234	I0<2>/I0<2>/I0<3>/Q#2	I0<2>/I0<2>/I0<3>/Q#3	   90.3330
+ $poly_conn
Rl235	I0<2>/I0<2>/I0<2>/Q	I0<2>/I0<2>/I0<2>/Q#2	   56.4103
+ $poly_conn
Rl236	I0<2>/I0<2>/I0<2>/Q#2	I0<2>/I0<2>/I0<2>/Q#3	   90.3330
+ $poly_conn
Rl237	I0<2>/I0<2>/I0<1>/Q	I0<2>/I0<2>/I0<1>/Q#2	   56.4103
+ $poly_conn
Rl238	I0<2>/I0<2>/I0<1>/Q#2	I0<2>/I0<2>/I0<1>/Q#3	   90.3330
+ $poly_conn
Rl239	I0<2>/I0<2>/I0<0>/Q	I0<2>/I0<2>/I0<0>/Q#2	   56.4103
+ $poly_conn
Rl240	I0<2>/I0<2>/I0<0>/Q#2	I0<2>/I0<2>/I0<0>/Q#3	   90.3330
+ $poly_conn
Rl241	I0<2>/I0<1>/I0<3>/Q	I0<2>/I0<1>/I0<3>/Q#2	   56.4103
+ $poly_conn
Rl242	I0<2>/I0<1>/I0<3>/Q#2	I0<2>/I0<1>/I0<3>/Q#3	   90.3330
+ $poly_conn
Rl243	I0<2>/I0<1>/I0<2>/Q	I0<2>/I0<1>/I0<2>/Q#2	   56.4103
+ $poly_conn
Rl244	I0<2>/I0<1>/I0<2>/Q#2	I0<2>/I0<1>/I0<2>/Q#3	   90.3330
+ $poly_conn
Rl245	I0<2>/I0<1>/I0<1>/Q	I0<2>/I0<1>/I0<1>/Q#2	   56.4103
+ $poly_conn
Rl246	I0<2>/I0<1>/I0<1>/Q#2	I0<2>/I0<1>/I0<1>/Q#3	   90.3330
+ $poly_conn
Rl247	I0<2>/I0<1>/I0<0>/Q	I0<2>/I0<1>/I0<0>/Q#2	   56.4103
+ $poly_conn
Rl248	I0<2>/I0<1>/I0<0>/Q#2	I0<2>/I0<1>/I0<0>/Q#3	   90.3330
+ $poly_conn
Rl249	I0<2>/I0<0>/I0<3>/Q	I0<2>/I0<0>/I0<3>/Q#2	   56.4103
+ $poly_conn
Rl250	I0<2>/I0<0>/I0<3>/Q#2	I0<2>/I0<0>/I0<3>/Q#3	   90.3330
+ $poly_conn
Rl251	I0<2>/I0<0>/I0<2>/Q	I0<2>/I0<0>/I0<2>/Q#2	   56.4103
+ $poly_conn
Rl252	I0<2>/I0<0>/I0<2>/Q#2	I0<2>/I0<0>/I0<2>/Q#3	   90.3330
+ $poly_conn
Rl253	I0<2>/I0<0>/I0<1>/Q	I0<2>/I0<0>/I0<1>/Q#2	   56.4103
+ $poly_conn
Rl254	I0<2>/I0<0>/I0<1>/Q#2	I0<2>/I0<0>/I0<1>/Q#3	   90.3330
+ $poly_conn
Rl255	I0<2>/I0<0>/I0<0>/Q	I0<2>/I0<0>/I0<0>/Q#2	   56.4103
+ $poly_conn
Rl256	I0<2>/I0<0>/I0<0>/Q#2	I0<2>/I0<0>/I0<0>/Q#3	   90.3330
+ $poly_conn
Rl257	I0<1>/I0<3>/I0<3>/Q	I0<1>/I0<3>/I0<3>/Q#2	   56.4103
+ $poly_conn
Rl258	I0<1>/I0<3>/I0<3>/Q#2	I0<1>/I0<3>/I0<3>/Q#3	   90.3330
+ $poly_conn
Rl259	I0<1>/I0<3>/I0<2>/Q	I0<1>/I0<3>/I0<2>/Q#2	   56.4103
+ $poly_conn
Rl260	I0<1>/I0<3>/I0<2>/Q#2	I0<1>/I0<3>/I0<2>/Q#3	   90.3330
+ $poly_conn
Rl261	I0<1>/I0<3>/I0<1>/Q	I0<1>/I0<3>/I0<1>/Q#2	   56.4103
+ $poly_conn
Rl262	I0<1>/I0<3>/I0<1>/Q#2	I0<1>/I0<3>/I0<1>/Q#3	   90.3330
+ $poly_conn
Rl263	I0<1>/I0<3>/I0<0>/Q	I0<1>/I0<3>/I0<0>/Q#2	   56.4103
+ $poly_conn
Rl264	I0<1>/I0<3>/I0<0>/Q#2	I0<1>/I0<3>/I0<0>/Q#3	   90.3330
+ $poly_conn
Rl265	I0<1>/I0<2>/I0<3>/Q	I0<1>/I0<2>/I0<3>/Q#2	   56.4103
+ $poly_conn
Rl266	I0<1>/I0<2>/I0<3>/Q#2	I0<1>/I0<2>/I0<3>/Q#3	   90.3330
+ $poly_conn
Rl267	I0<1>/I0<2>/I0<2>/Q	I0<1>/I0<2>/I0<2>/Q#2	   56.4103
+ $poly_conn
Rl268	I0<1>/I0<2>/I0<2>/Q#2	I0<1>/I0<2>/I0<2>/Q#3	   90.3330
+ $poly_conn
Rl269	I0<1>/I0<2>/I0<1>/Q	I0<1>/I0<2>/I0<1>/Q#2	   56.4103
+ $poly_conn
Rl270	I0<1>/I0<2>/I0<1>/Q#2	I0<1>/I0<2>/I0<1>/Q#3	   90.3330
+ $poly_conn
Rl271	I0<1>/I0<2>/I0<0>/Q	I0<1>/I0<2>/I0<0>/Q#2	   56.4103
+ $poly_conn
Rl272	I0<1>/I0<2>/I0<0>/Q#2	I0<1>/I0<2>/I0<0>/Q#3	   90.3330
+ $poly_conn
Rl273	I0<1>/I0<1>/I0<3>/Q	I0<1>/I0<1>/I0<3>/Q#2	   56.4103
+ $poly_conn
Rl274	I0<1>/I0<1>/I0<3>/Q#2	I0<1>/I0<1>/I0<3>/Q#3	   90.3330
+ $poly_conn
Rl275	I0<1>/I0<1>/I0<2>/Q	I0<1>/I0<1>/I0<2>/Q#2	   56.4103
+ $poly_conn
Rl276	I0<1>/I0<1>/I0<2>/Q#2	I0<1>/I0<1>/I0<2>/Q#3	   90.3330
+ $poly_conn
Rl277	I0<1>/I0<1>/I0<1>/Q	I0<1>/I0<1>/I0<1>/Q#2	   56.4103
+ $poly_conn
Rl278	I0<1>/I0<1>/I0<1>/Q#2	I0<1>/I0<1>/I0<1>/Q#3	   90.3330
+ $poly_conn
Rl279	I0<1>/I0<1>/I0<0>/Q	I0<1>/I0<1>/I0<0>/Q#2	   56.4103
+ $poly_conn
Rl280	I0<1>/I0<1>/I0<0>/Q#2	I0<1>/I0<1>/I0<0>/Q#3	   90.3330
+ $poly_conn
Rl281	I0<1>/I0<0>/I0<3>/Q	I0<1>/I0<0>/I0<3>/Q#2	   56.4103
+ $poly_conn
Rl282	I0<1>/I0<0>/I0<3>/Q#2	I0<1>/I0<0>/I0<3>/Q#3	   90.3330
+ $poly_conn
Rl283	I0<1>/I0<0>/I0<2>/Q	I0<1>/I0<0>/I0<2>/Q#2	   56.4103
+ $poly_conn
Rl284	I0<1>/I0<0>/I0<2>/Q#2	I0<1>/I0<0>/I0<2>/Q#3	   90.3330
+ $poly_conn
Rl285	I0<1>/I0<0>/I0<1>/Q	I0<1>/I0<0>/I0<1>/Q#2	   56.4103
+ $poly_conn
Rl286	I0<1>/I0<0>/I0<1>/Q#2	I0<1>/I0<0>/I0<1>/Q#3	   90.3330
+ $poly_conn
Rl287	I0<1>/I0<0>/I0<0>/Q	I0<1>/I0<0>/I0<0>/Q#2	   56.4103
+ $poly_conn
Rl288	I0<1>/I0<0>/I0<0>/Q#2	I0<1>/I0<0>/I0<0>/Q#3	   90.3330
+ $poly_conn
Rl289	I0<0>/I0<3>/I0<3>/Q	I0<0>/I0<3>/I0<3>/Q#2	   56.4103
+ $poly_conn
Rl290	I0<0>/I0<3>/I0<3>/Q#2	I0<0>/I0<3>/I0<3>/Q#3	   90.3330
+ $poly_conn
Rl291	I0<0>/I0<3>/I0<2>/Q	I0<0>/I0<3>/I0<2>/Q#2	   56.4103
+ $poly_conn
Rl292	I0<0>/I0<3>/I0<2>/Q#2	I0<0>/I0<3>/I0<2>/Q#3	   90.3330
+ $poly_conn
Rl293	I0<0>/I0<3>/I0<1>/Q	I0<0>/I0<3>/I0<1>/Q#2	   56.4103
+ $poly_conn
Rl294	I0<0>/I0<3>/I0<1>/Q#2	I0<0>/I0<3>/I0<1>/Q#3	   90.3330
+ $poly_conn
Rl295	I0<0>/I0<3>/I0<0>/Q	I0<0>/I0<3>/I0<0>/Q#2	   56.4103
+ $poly_conn
Rl296	I0<0>/I0<3>/I0<0>/Q#2	I0<0>/I0<3>/I0<0>/Q#3	   90.3330
+ $poly_conn
Rl297	I0<0>/I0<2>/I0<3>/Q	I0<0>/I0<2>/I0<3>/Q#2	   56.4103
+ $poly_conn
Rl298	I0<0>/I0<2>/I0<3>/Q#2	I0<0>/I0<2>/I0<3>/Q#3	   90.3330
+ $poly_conn
Rl299	I0<0>/I0<2>/I0<2>/Q	I0<0>/I0<2>/I0<2>/Q#2	   56.4103
+ $poly_conn
Rl300	I0<0>/I0<2>/I0<2>/Q#2	I0<0>/I0<2>/I0<2>/Q#3	   90.3330
+ $poly_conn
Rl301	I0<0>/I0<2>/I0<1>/Q	I0<0>/I0<2>/I0<1>/Q#2	   56.4103
+ $poly_conn
Rl302	I0<0>/I0<2>/I0<1>/Q#2	I0<0>/I0<2>/I0<1>/Q#3	   90.3330
+ $poly_conn
Rl303	I0<0>/I0<2>/I0<0>/Q	I0<0>/I0<2>/I0<0>/Q#2	   56.4103
+ $poly_conn
Rl304	I0<0>/I0<2>/I0<0>/Q#2	I0<0>/I0<2>/I0<0>/Q#3	   90.3330
+ $poly_conn
Rl305	I0<0>/I0<1>/I0<3>/Q	I0<0>/I0<1>/I0<3>/Q#2	   56.4103
+ $poly_conn
Rl306	I0<0>/I0<1>/I0<3>/Q#2	I0<0>/I0<1>/I0<3>/Q#3	   90.3330
+ $poly_conn
Rl307	I0<0>/I0<1>/I0<2>/Q	I0<0>/I0<1>/I0<2>/Q#2	   56.4103
+ $poly_conn
Rl308	I0<0>/I0<1>/I0<2>/Q#2	I0<0>/I0<1>/I0<2>/Q#3	   90.3330
+ $poly_conn
Rl309	I0<0>/I0<1>/I0<1>/Q	I0<0>/I0<1>/I0<1>/Q#2	   56.4103
+ $poly_conn
Rl310	I0<0>/I0<1>/I0<1>/Q#2	I0<0>/I0<1>/I0<1>/Q#3	   90.3330
+ $poly_conn
Rl311	I0<0>/I0<1>/I0<0>/Q	I0<0>/I0<1>/I0<0>/Q#2	   56.4103
+ $poly_conn
[...]
C1057	WL<42>#5	VSS	6.6517e-17	$cmodel
C1058	WL<41>#5	VSS	6.6517e-17	$cmodel
C1059	WL<40>#5	VSS	6.6517e-17	$cmodel
C1060	WL<39>#5	VSS	6.6517e-17	$cmodel
C1061	WL<38>#5	VSS	6.6517e-17	$cmodel
C1062	WL<37>#5	VSS	6.6517e-17	$cmodel
C1063	WL<36>#5	VSS	6.6517e-17	$cmodel
C1064	WL<35>#5	VSS	6.6517e-17	$cmodel
C1065	WL<34>#5	VSS	6.6517e-17	$cmodel
C1066	WL<33>#5	VSS	6.6517e-17	$cmodel
C1067	WL<32>#5	VSS	6.6517e-17	$cmodel
C1068	WL<31>#5	VSS	6.6517e-17	$cmodel
C1069	WL<30>#5	VSS	6.6517e-17	$cmodel
C1070	WL<29>#5	VSS	6.6517e-17	$cmodel
C1071	WL<28>#5	VSS	6.6517e-17	$cmodel
C1072	WL<27>#5	VSS	6.6517e-17	$cmodel
C1073	WL<26>#5	VSS	6.6517e-17	$cmodel
C1074	WL<25>#5	VSS	6.6517e-17	$cmodel
C1075	WL<24>#5	VSS	6.6517e-17	$cmodel
C1076	WL<23>#5	VSS	6.6517e-17	$cmodel
C1077	WL<22>#5	VSS	6.6517e-17	$cmodel
C1078	WL<21>#5	VSS	6.6517e-17	$cmodel
C1079	WL<20>#5	VSS	6.6517e-17	$cmodel
C1080	WL<19>#5	VSS	6.6517e-17	$cmodel
C1081	WL<18>#5	VSS	6.6517e-17	$cmodel
C1082	WL<17>#5	VSS	6.6517e-17	$cmodel
C1083	WL<16>#5	VSS	6.6517e-17	$cmodel
C1084	WL<15>#5	VSS	6.6517e-17	$cmodel
C1085	WL<14>#5	VSS	6.6517e-17	$cmodel
C1086	WL<13>#5	VSS	6.6517e-17	$cmodel
C1087	WL<12>#5	VSS	6.6517e-17	$cmodel
C1088	WL<11>#5	VSS	6.6517e-17	$cmodel
C1089	WL<10>#5	VSS	6.6517e-17	$cmodel
C1090	WL<9>#5	VSS	6.6517e-17	$cmodel
C1091	WL<8>#5	VSS	6.6517e-17	$cmodel
C1092	WL<7>#5	VSS	6.6517e-17	$cmodel
C1093	WL<6>#5	VSS	6.6517e-17	$cmodel
C1094	WL<5>#5	VSS	6.6517e-17	$cmodel
C1095	WL<4>#5	VSS	6.6517e-17	$cmodel
C1096	WL<3>#5	VSS	6.6517e-17	$cmodel
C1097	WL<2>#5	VSS	6.6517e-17	$cmodel
C1098	WL<1>#5	VSS	6.67349e-17	$cmodel
C1099	WL<0>#5	VSS	6.66564e-17	$cmodel
C1100	VDD#68	VSS	1.22704e-15	$cmodel
C1101	I0<3>/I0<3>/I0<3>/QB#4	VSS	6.11338e-17	$cmodel
C1102	I0<3>/I0<3>/I0<2>/QB#4	VSS	6.01502e-17	$cmodel
C1103	I0<3>/I0<3>/I0<1>/QB#4	VSS	5.98631e-17	$cmodel
C1104	I0<3>/I0<3>/I0<0>/QB#4	VSS	6.01223e-17	$cmodel
C1105	I0<3>/I0<2>/I0<3>/QB#4	VSS	5.98631e-17	$cmodel
C1106	I0<3>/I0<2>/I0<2>/QB#4	VSS	6.01223e-17	$cmodel
C1107	I0<3>/I0<2>/I0<1>/QB#4	VSS	5.98631e-17	$cmodel
C1108	I0<3>/I0<2>/I0<0>/QB#4	VSS	6.01223e-17	$cmodel
C1109	I0<3>/I0<1>/I0<3>/QB#4	VSS	5.98631e-17	$cmodel
C1110	I0<3>/I0<1>/I0<2>/QB#4	VSS	6.01223e-17	$cmodel
C1111	I0<3>/I0<1>/I0<1>/QB#4	VSS	5.98631e-17	$cmodel
C1112	I0<3>/I0<1>/I0<0>/QB#4	VSS	6.01223e-17	$cmodel
C1113	I0<3>/I0<0>/I0<3>/QB#4	VSS	5.98631e-17	$cmodel
C1114	I0<3>/I0<0>/I0<2>/QB#4	VSS	6.01223e-17	$cmodel
C1115	I0<3>/I0<0>/I0<1>/QB#4	VSS	5.98631e-17	$cmodel
C1116	I0<3>/I0<0>/I0<0>/QB#4	VSS	6.01223e-17	$cmodel
C1117	I0<2>/I0<3>/I0<3>/QB#4	VSS	5.98631e-17	$cmodel
C1118	I0<2>/I0<3>/I0<2>/QB#4	VSS	6.01223e-17	$cmodel
C1119	I0<2>/I0<3>/I0<1>/QB#4	VSS	5.98631e-17	$cmodel
C1120	I0<2>/I0<3>/I0<0>/QB#4	VSS	6.01223e-17	$cmodel
C1121	I0<2>/I0<2>/I0<3>/QB#4	VSS	5.98631e-17	$cmodel
C1122	I0<2>/I0<2>/I0<2>/QB#4	VSS	6.01223e-17	$cmodel
C1123	I0<2>/I0<2>/I0<1>/QB#4	VSS	5.98631e-17	$cmodel
C1124	I0<2>/I0<2>/I0<0>/QB#4	VSS	6.01223e-17	$cmodel
C1125	I0<2>/I0<1>/I0<3>/QB#4	VSS	5.98631e-17	$cmodel
C1126	I0<2>/I0<1>/I0<2>/QB#4	VSS	6.01223e-17	$cmodel
C1127	I0<2>/I0<1>/I0<1>/QB#4	VSS	5.98631e-17	$cmodel
C1128	I0<2>/I0<1>/I0<0>/QB#4	VSS	6.01223e-17	$cmodel
C1129	I0<2>/I0<0>/I0<3>/QB#4	VSS	5.98631e-17	$cmodel
C1130	I0<2>/I0<0>/I0<2>/QB#4	VSS	6.01223e-17	$cmodel
C1131	I0<2>/I0<0>/I0<1>/QB#4	VSS	5.98631e-17	$cmodel
C1132	I0<2>/I0<0>/I0<0>/QB#4	VSS	6.01223e-17	$cmodel
C1133	I0<1>/I0<3>/I0<3>/QB#4	VSS	5.98631e-17	$cmodel
C1134	I0<1>/I0<3>/I0<2>/QB#4	VSS	6.01223e-17	$cmodel
C1135	I0<1>/I0<3>/I0<1>/QB#4	VSS	5.98631e-17	$cmodel
C1136	I0<1>/I0<3>/I0<0>/QB#4	VSS	6.01223e-17	$cmodel
C1137	I0<1>/I0<2>/I0<3>/QB#4	VSS	5.98631e-17	$cmodel
C1138	I0<1>/I0<2>/I0<2>/QB#4	VSS	6.01223e-17	$cmodel
C1139	I0<1>/I0<2>/I0<1>/QB#4	VSS	5.98631e-17	$cmodel
C1140	I0<1>/I0<2>/I0<0>/QB#4	VSS	6.01223e-17	$cmodel
C1141	I0<1>/I0<1>/I0<3>/QB#4	VSS	5.98631e-17	$cmodel
C1142	I0<1>/I0<1>/I0<2>/QB#4	VSS	6.01223e-17	$cmodel
C1143	I0<1>/I0<1>/I0<1>/QB#4	VSS	5.98631e-17	$cmodel
C1144	I0<1>/I0<1>/I0<0>/QB#4	VSS	6.01223e-17	$cmodel
C1145	I0<1>/I0<0>/I0<3>/QB#4	VSS	5.98631e-17	$cmodel
C1146	I0<1>/I0<0>/I0<2>/QB#4	VSS	6.01223e-17	$cmodel
C1147	I0<1>/I0<0>/I0<1>/QB#4	VSS	5.98631e-17	$cmodel
C1148	I0<1>/I0<0>/I0<0>/QB#4	VSS	6.01223e-17	$cmodel
C1149	I0<0>/I0<3>/I0<3>/QB#4	VSS	5.98631e-17	$cmodel
C1150	I0<0>/I0<3>/I0<2>/QB#4	VSS	6.01223e-17	$cmodel
C1151	I0<0>/I0<3>/I0<1>/QB#4	VSS	5.98631e-17	$cmodel
C1152	I0<0>/I0<3>/I0<0>/QB#4	VSS	6.01223e-17	$cmodel
C1153	I0<0>/I0<2>/I0<3>/QB#4	VSS	5.98631e-17	$cmodel
C1154	I0<0>/I0<2>/I0<2>/QB#4	VSS	6.01223e-17	$cmodel
C1155	I0<0>/I0<2>/I0<1>/QB#4	VSS	5.98631e-17	$cmodel
C1156	I0<0>/I0<2>/I0<0>/QB#4	VSS	6.01223e-17	$cmodel
C1157	I0<0>/I0<1>/I0<3>/QB#4	VSS	5.98631e-17	$cmodel
C1158	I0<0>/I0<1>/I0<2>/QB#4	VSS	6.01223e-17	$cmodel
C1159	I0<0>/I0<1>/I0<1>/QB#4	VSS	5.98631e-17	$cmodel
C1160	I0<0>/I0<1>/I0<0>/QB#4	VSS	6.01223e-17	$cmodel
C1161	I0<0>/I0<0>/I0<3>/QB#4	VSS	5.98631e-17	$cmodel
C1162	I0<0>/I0<0>/I0<2>/QB#4	VSS	6.01223e-17	$cmodel
C1163	I0<0>/I0<0>/I0<1>/QB#4	VSS	5.9891e-17	$cmodel
C1164	I0<0>/I0<0>/I0<0>/QB#4	VSS	6.14412e-17	$cmodel
C1165	I0<3>/I0<3>/I0<3>/QB#5	VSS	5.70547e-17	$cmodel
C1166	VDD#70	VSS	4.6168e-17	$cmodel
C1167	I0<3>/I0<3>/I0<2>/QB#5	VSS	6.01887e-17	$cmodel
C1168	I0<3>/I0<3>/I0<1>/QB#5	VSS	6.00461e-17	$cmodel
C1169	VDD#72	VSS	4.61336e-17	$cmodel
C1170	I0<3>/I0<3>/I0<0>/QB#5	VSS	6.00463e-17	$cmodel
C1171	I0<3>/I0<2>/I0<3>/QB#5	VSS	6.00461e-17	$cmodel
C1172	VDD#74	VSS	4.61803e-17	$cmodel
C1173	I0<3>/I0<2>/I0<2>/QB#5	VSS	6.00463e-17	$cmodel
C1174	I0<3>/I0<2>/I0<1>/QB#5	VSS	6.00461e-17	$cmodel
C1175	VDD#76	VSS	4.61336e-17	$cmodel
C1176	I0<3>/I0<2>/I0<0>/QB#5	VSS	6.00463e-17	$cmodel
C1177	I0<3>/I0<1>/I0<3>/QB#5	VSS	6.00461e-17	$cmodel
C1178	VDD#78	VSS	4.61336e-17	$cmodel
C1179	I0<3>/I0<1>/I0<2>/QB#5	VSS	6.00463e-17	$cmodel
C1180	I0<3>/I0<1>/I0<1>/QB#5	VSS	6.00461e-17	$cmodel
C1181	VDD#80	VSS	4.61336e-17	$cmodel
C1182	I0<3>/I0<1>/I0<0>/QB#5	VSS	6.00463e-17	$cmodel
C1183	I0<3>/I0<0>/I0<3>/QB#5	VSS	6.00461e-17	$cmodel
C1184	VDD#82	VSS	4.61336e-17	$cmodel
C1185	I0<3>/I0<0>/I0<2>/QB#5	VSS	6.00463e-17	$cmodel
C1186	I0<3>/I0<0>/I0<1>/QB#5	VSS	6.00461e-17	$cmodel
C1187	VDD#84	VSS	4.61336e-17	$cmodel
C1188	I0<3>/I0<0>/I0<0>/QB#5	VSS	6.00463e-17	$cmodel
C1189	I0<2>/I0<3>/I0<3>/QB#5	VSS	6.00461e-17	$cmodel
C1190	VDD#86	VSS	4.61336e-17	$cmodel
C1191	I0<2>/I0<3>/I0<2>/QB#5	VSS	6.00463e-17	$cmodel
C1192	I0<2>/I0<3>/I0<1>/QB#5	VSS	6.00461e-17	$cmodel
C1193	VDD#88	VSS	4.61336e-17	$cmodel
C1194	I0<2>/I0<3>/I0<0>/QB#5	VSS	6.00463e-17	$cmodel
C1195	I0<2>/I0<2>/I0<3>/QB#5	VSS	6.00461e-17	$cmodel
C1196	VDD#90	VSS	4.61336e-17	$cmodel
C1197	I0<2>/I0<2>/I0<2>/QB#5	VSS	6.00463e-17	$cmodel
C1198	I0<2>/I0<2>/I0<1>/QB#5	VSS	6.00461e-17	$cmodel
C1199	VDD#92	VSS	4.61336e-17	$cmodel
C1200	I0<2>/I0<2>/I0<0>/QB#5	VSS	6.00463e-17	$cmodel
C1201	I0<2>/I0<1>/I0<3>/QB#5	VSS	6.00461e-17	$cmodel
C1202	VDD#94	VSS	4.61336e-17	$cmodel
C1203	I0<2>/I0<1>/I0<2>/QB#5	VSS	6.00463e-17	$cmodel
C1204	I0<2>/I0<1>/I0<1>/QB#5	VSS	6.00461e-17	$cmodel
C1205	VDD#96	VSS	4.61336e-17	$cmodel
C1206	I0<2>/I0<1>/I0<0>/QB#5	VSS	6.00463e-17	$cmodel
C1207	I0<2>/I0<0>/I0<3>/QB#5	VSS	6.00461e-17	$cmodel
C1208	VDD#98	VSS	4.61336e-17	$cmodel
C1209	I0<2>/I0<0>/I0<2>/QB#5	VSS	6.00463e-17	$cmodel
C1210	I0<2>/I0<0>/I0<1>/QB#5	VSS	6.00461e-17	$cmodel
C1211	VDD#100	VSS	4.61336e-17	$cmodel
C1212	I0<2>/I0<0>/I0<0>/QB#5	VSS	6.00463e-17	$cmodel
C1213	I0<1>/I0<3>/I0<3>/QB#5	VSS	6.00461e-17	$cmodel
C1214	VDD#102	VSS	4.61336e-17	$cmodel
C1215	I0<1>/I0<3>/I0<2>/QB#5	VSS	6.00463e-17	$cmodel
C1216	I0<1>/I0<3>/I0<1>/QB#5	VSS	6.00461e-17	$cmodel
C1217	VDD#104	VSS	4.61336e-17	$cmodel
C1218	I0<1>/I0<3>/I0<0>/QB#5	VSS	6.00463e-17	$cmodel
C1219	I0<1>/I0<2>/I0<3>/QB#5	VSS	6.00461e-17	$cmodel
C1220	VDD#106	VSS	4.61336e-17	$cmodel
C1221	I0<1>/I0<2>/I0<2>/QB#5	VSS	6.00463e-17	$cmodel
C1222	I0<1>/I0<2>/I0<1>/QB#5	VSS	6.00461e-17	$cmodel
C1223	VDD#108	VSS	4.61336e-17	$cmodel
C1224	I0<1>/I0<2>/I0<0>/QB#5	VSS	6.00463e-17	$cmodel
C1225	I0<1>/I0<1>/I0<3>/QB#5	VSS	6.00461e-17	$cmodel
C1226	VDD#110	VSS	4.61336e-17	$cmodel
C1227	I0<1>/I0<1>/I0<2>/QB#5	VSS	6.00463e-17	$cmodel
C1228	I0<1>/I0<1>/I0<1>/QB#5	VSS	6.00461e-17	$cmodel
C1229	VDD#112	VSS	4.61336e-17	$cmodel
C1230	I0<1>/I0<1>/I0<0>/QB#5	VSS	6.00463e-17	$cmodel
C1231	I0<1>/I0<0>/I0<3>/QB#5	VSS	6.00461e-17	$cmodel
C1232	VDD#114	VSS	4.61336e-17	$cmodel
C1233	I0<1>/I0<0>/I0<2>/QB#5	VSS	6.00463e-17	$cmodel
C1234	I0<1>/I0<0>/I0<1>/QB#5	VSS	6.00461e-17	$cmodel
C1235	VDD#116	VSS	4.61336e-17	$cmodel
C1236	I0<1>/I0<0>/I0<0>/QB#5	VSS	6.00463e-17	$cmodel
C1237	I0<0>/I0<3>/I0<3>/QB#5	VSS	6.00461e-17	$cmodel
C1238	VDD#118	VSS	4.61336e-17	$cmodel
C1239	I0<0>/I0<3>/I0<2>/QB#5	VSS	6.00463e-17	$cmodel
C1240	I0<0>/I0<3>/I0<1>/QB#5	VSS	6.00461e-17	$cmodel
C1241	VDD#120	VSS	4.61336e-17	$cmodel
C1242	I0<0>/I0<3>/I0<0>/QB#5	VSS	6.00463e-17	$cmodel
C1243	I0<0>/I0<2>/I0<3>/QB#5	VSS	6.00461e-17	$cmodel
C1244	VDD#122	VSS	4.61336e-17	$cmodel
C1245	I0<0>/I0<2>/I0<2>/QB#5	VSS	6.00463e-17	$cmodel
C1246	I0<0>/I0<2>/I0<1>/QB#5	VSS	6.00461e-17	$cmodel
C1247	VDD#124	VSS	4.61336e-17	$cmodel
C1248	I0<0>/I0<2>/I0<0>/QB#5	VSS	6.00463e-17	$cmodel
C1249	I0<0>/I0<1>/I0<3>/QB#5	VSS	6.00461e-17	$cmodel
C1250	VDD#126	VSS	4.61336e-17	$cmodel
C1251	I0<0>/I0<1>/I0<2>/QB#5	VSS	6.00463e-17	$cmodel
C1252	I0<0>/I0<1>/I0<1>/QB#5	VSS	6.00461e-17	$cmodel
C1253	VDD#128	VSS	4.61336e-17	$cmodel
C1254	I0<0>/I0<1>/I0<0>/QB#5	VSS	6.00463e-17	$cmodel
C1255	I0<0>/I0<0>/I0<3>/QB#5	VSS	6.00461e-17	$cmodel
C1256	VDD#130	VSS	4.61336e-17	$cmodel
C1257	I0<0>/I0<0>/I0<2>/QB#5	VSS	6.00463e-17	$cmodel
C1258	I0<0>/I0<0>/I0<1>/QB#5	VSS	6.01885e-17	$cmodel
C1259	VDD#132	VSS	4.6168e-17	$cmodel
C1260	I0<0>/I0<0>/I0<0>/QB#5	VSS	5.72465e-17	$cmodel
C1261	VDD#2	VSS	2.84073e-17	$cmodel
C1262	I0<3>/I0<3>/I0<3>/Q#4	VSS	5.17174e-17	$cmodel
C1263	I0<3>/I0<3>/I0<2>/Q#4	VSS	5.85908e-17	$cmodel
C1264	VDD#4	VSS	4.68023e-17	$cmodel
C1265	I0<3>/I0<3>/I0<1>/Q#4	VSS	5.85476e-17	$cmodel
C1266	I0<3>/I0<3>/I0<0>/Q#4	VSS	5.84786e-17	$cmodel
C1267	VDD#6	VSS	4.67538e-17	$cmodel
C1268	I0<3>/I0<2>/I0<3>/Q#4	VSS	5.84786e-17	$cmodel
C1269	I0<3>/I0<2>/I0<2>/Q#4	VSS	5.84786e-17	$cmodel
C1270	VDD#8	VSS	4.675e-17	$cmodel
C1271	I0<3>/I0<2>/I0<1>/Q#4	VSS	5.84786e-17	$cmodel
C1272	I0<3>/I0<2>/I0<0>/Q#4	VSS	5.84786e-17	$cmodel
C1273	VDD#10	VSS	4.675e-17	$cmodel
C1274	I0<3>/I0<1>/I0<3>/Q#4	VSS	5.84786e-17	$cmodel
C1275	I0<3>/I0<1>/I0<2>/Q#4	VSS	5.84786e-17	$cmodel
C1276	VDD#12	VSS	4.675e-17	$cmodel
C1277	I0<3>/I0<1>/I0<1>/Q#4	VSS	5.84786e-17	$cmodel
C1278	I0<3>/I0<1>/I0<0>/Q#4	VSS	5.84786e-17	$cmodel
C1279	VDD#14	VSS	4.675e-17	$cmodel
C1280	I0<3>/I0<0>/I0<3>/Q#4	VSS	5.84786e-17	$cmodel
C1281	I0<3>/I0<0>/I0<2>/Q#4	VSS	5.84786e-17	$cmodel
C1282	VDD#16	VSS	4.675e-17	$cmodel
C1283	I0<3>/I0<0>/I0<1>/Q#4	VSS	5.84786e-17	$cmodel
C1284	I0<3>/I0<0>/I0<0>/Q#4	VSS	5.84786e-17	$cmodel
C1285	VDD#18	VSS	4.675e-17	$cmodel
C1286	I0<2>/I0<3>/I0<3>/Q#4	VSS	5.84786e-17	$cmodel
C1287	I0<2>/I0<3>/I0<2>/Q#4	VSS	5.84786e-17	$cmodel
C1288	VDD#20	VSS	4.675e-17	$cmodel
C1289	I0<2>/I0<3>/I0<1>/Q#4	VSS	5.84786e-17	$cmodel
C1290	I0<2>/I0<3>/I0<0>/Q#4	VSS	5.84786e-17	$cmodel
C1291	VDD#22	VSS	4.675e-17	$cmodel
C1292	I0<2>/I0<2>/I0<3>/Q#4	VSS	5.84786e-17	$cmodel
C1293	I0<2>/I0<2>/I0<2>/Q#4	VSS	5.84786e-17	$cmodel
C1294	VDD#24	VSS	4.675e-17	$cmodel
C1295	I0<2>/I0<2>/I0<1>/Q#4	VSS	5.84786e-17	$cmodel
C1296	I0<2>/I0<2>/I0<0>/Q#4	VSS	5.84786e-17	$cmodel
C1297	VDD#26	VSS	4.675e-17	$cmodel
C1298	I0<2>/I0<1>/I0<3>/Q#4	VSS	5.84786e-17	$cmodel
C1299	I0<2>/I0<1>/I0<2>/Q#4	VSS	5.84786e-17	$cmodel
C1300	VDD#28	VSS	4.675e-17	$cmodel
C1301	I0<2>/I0<1>/I0<1>/Q#4	VSS	5.84786e-17	$cmodel
C1302	I0<2>/I0<1>/I0<0>/Q#4	VSS	5.84786e-17	$cmodel
C1303	VDD#30	VSS	4.675e-17	$cmodel
C1304	I0<2>/I0<0>/I0<3>/Q#4	VSS	5.84786e-17	$cmodel
C1305	I0<2>/I0<0>/I0<2>/Q#4	VSS	5.84786e-17	$cmodel
C1306	VDD#32	VSS	4.675e-17	$cmodel
C1307	I0<2>/I0<0>/I0<1>/Q#4	VSS	5.84786e-17	$cmodel
C1308	I0<2>/I0<0>/I0<0>/Q#4	VSS	5.84786e-17	$cmodel
C1309	VDD#34	VSS	4.675e-17	$cmodel
C1310	I0<1>/I0<3>/I0<3>/Q#4	VSS	5.84786e-17	$cmodel
C1311	I0<1>/I0<3>/I0<2>/Q#4	VSS	5.84786e-17	$cmodel
C1312	VDD#36	VSS	4.675e-17	$cmodel
C1313	I0<1>/I0<3>/I0<1>/Q#4	VSS	5.84786e-17	$cmodel
C1314	I0<1>/I0<3>/I0<0>/Q#4	VSS	5.84786e-17	$cmodel
C1315	VDD#38	VSS	4.675e-17	$cmodel
C1316	I0<1>/I0<2>/I0<3>/Q#4	VSS	5.84786e-17	$cmodel
C1317	I0<1>/I0<2>/I0<2>/Q#4	VSS	5.84786e-17	$cmodel
C1318	VDD#40	VSS	4.675e-17	$cmodel
C1319	I0<1>/I0<2>/I0<1>/Q#4	VSS	5.84786e-17	$cmodel
C1320	I0<1>/I0<2>/I0<0>/Q#4	VSS	5.84786e-17	$cmodel
C1321	VDD#42	VSS	4.675e-17	$cmodel
C1322	I0<1>/I0<1>/I0<3>/Q#4	VSS	5.84786e-17	$cmodel
C1323	I0<1>/I0<1>/I0<2>/Q#4	VSS	5.84786e-17	$cmodel
C1324	VDD#44	VSS	4.675e-17	$cmodel
C1325	I0<1>/I0<1>/I0<1>/Q#4	VSS	5.84786e-17	$cmodel
C1326	I0<1>/I0<1>/I0<0>/Q#4	VSS	5.84786e-17	$cmodel
C1327	VDD#46	VSS	4.675e-17	$cmodel
C1328	I0<1>/I0<0>/I0<3>/Q#4	VSS	5.84786e-17	$cmodel
C1329	I0<1>/I0<0>/I0<2>/Q#4	VSS	5.84786e-17	$cmodel
C1330	VDD#48	VSS	4.675e-17	$cmodel
C1331	I0<1>/I0<0>/I0<1>/Q#4	VSS	5.84786e-17	$cmodel
C1332	I0<1>/I0<0>/I0<0>/Q#4	VSS	5.84786e-17	$cmodel
C1333	VDD#50	VSS	4.675e-17	$cmodel
C1334	I0<0>/I0<3>/I0<3>/Q#4	VSS	5.84786e-17	$cmodel
C1335	I0<0>/I0<3>/I0<2>/Q#4	VSS	5.84786e-17	$cmodel
C1336	VDD#52	VSS	4.675e-17	$cmodel
C1337	I0<0>/I0<3>/I0<1>/Q#4	VSS	5.84786e-17	$cmodel
C1338	I0<0>/I0<3>/I0<0>/Q#4	VSS	5.84786e-17	$cmodel
C1339	VDD#54	VSS	4.675e-17	$cmodel
C1340	I0<0>/I0<2>/I0<3>/Q#4	VSS	5.84786e-17	$cmodel
C1341	I0<0>/I0<2>/I0<2>/Q#4	VSS	5.84786e-17	$cmodel
C1342	VDD#56	VSS	4.675e-17	$cmodel
C1343	I0<0>/I0<2>/I0<1>/Q#4	VSS	5.84786e-17	$cmodel
C1344	I0<0>/I0<2>/I0<0>/Q#4	VSS	5.84786e-17	$cmodel
C1345	VDD#58	VSS	4.675e-17	$cmodel
C1346	I0<0>/I0<1>/I0<3>/Q#4	VSS	5.84786e-17	$cmodel
C1347	I0<0>/I0<1>/I0<2>/Q#4	VSS	5.84786e-17	$cmodel
C1348	VDD#60	VSS	4.675e-17	$cmodel
C1349	I0<0>/I0<1>/I0<1>/Q#4	VSS	5.84786e-17	$cmodel
C1350	I0<0>/I0<1>/I0<0>/Q#4	VSS	5.84786e-17	$cmodel
C1351	VDD#62	VSS	4.675e-17	$cmodel
C1352	I0<0>/I0<0>/I0<3>/Q#4	VSS	5.84786e-17	$cmodel
C1353	I0<0>/I0<0>/I0<2>/Q#4	VSS	5.85476e-17	$cmodel
C1354	VDD#64	VSS	4.68023e-17	$cmodel
C1355	I0<0>/I0<0>/I0<1>/Q#4	VSS	5.85908e-17	$cmodel
C1356	I0<0>/I0<0>/I0<0>/Q#4	VSS	5.2584e-17	$cmodel
C1357	VDD#66	VSS	2.84097e-17	$cmodel
C1358	I0<3>/I0<3>/I0<3>/Q#6	VSS	6.02111e-17	$cmodel
C1359	I0<3>/I0<3>/I0<2>/Q#6	VSS	6.28358e-17	$cmodel
C1360	I0<3>/I0<3>/I0<1>/Q#6	VSS	6.28084e-17	$cmodel
C1361	I0<3>/I0<3>/I0<0>/Q#6	VSS	6.27526e-17	$cmodel
C1362	I0<3>/I0<2>/I0<3>/Q#6	VSS	6.28425e-17	$cmodel
C1363	I0<3>/I0<2>/I0<2>/Q#6	VSS	6.28084e-17	$cmodel
C1364	I0<3>/I0<2>/I0<1>/Q#6	VSS	6.28084e-17	$cmodel
C1365	I0<3>/I0<2>/I0<0>/Q#6	VSS	6.28084e-17	$cmodel
C1366	I0<3>/I0<1>/I0<3>/Q#6	VSS	6.28084e-17	$cmodel
C1367	I0<3>/I0<1>/I0<2>/Q#6	VSS	6.28084e-17	$cmodel
C1368	I0<3>/I0<1>/I0<1>/Q#6	VSS	6.28084e-17	$cmodel
C1369	I0<3>/I0<1>/I0<0>/Q#6	VSS	6.28084e-17	$cmodel
C1370	I0<3>/I0<0>/I0<3>/Q#6	VSS	6.28084e-17	$cmodel
C1371	I0<3>/I0<0>/I0<2>/Q#6	VSS	6.28084e-17	$cmodel
C1372	I0<3>/I0<0>/I0<1>/Q#6	VSS	6.28084e-17	$cmodel
C1373	I0<3>/I0<0>/I0<0>/Q#6	VSS	6.28084e-17	$cmodel
C1374	I0<2>/I0<3>/I0<3>/Q#6	VSS	6.28084e-17	$cmodel
C1375	I0<2>/I0<3>/I0<2>/Q#6	VSS	6.28084e-17	$cmodel
C1376	I0<2>/I0<3>/I0<1>/Q#6	VSS	6.28084e-17	$cmodel
C1377	I0<2>/I0<3>/I0<0>/Q#6	VSS	6.28084e-17	$cmodel
C1378	I0<2>/I0<2>/I0<3>/Q#6	VSS	6.28084e-17	$cmodel
C1379	I0<2>/I0<2>/I0<2>/Q#6	VSS	6.28084e-17	$cmodel
C1380	I0<2>/I0<2>/I0<1>/Q#6	VSS	6.28084e-17	$cmodel
C1381	I0<2>/I0<2>/I0<0>/Q#6	VSS	6.28084e-17	$cmodel
C1382	I0<2>/I0<1>/I0<3>/Q#6	VSS	6.28084e-17	$cmodel
C1383	I0<2>/I0<1>/I0<2>/Q#6	VSS	6.28084e-17	$cmodel
C1384	I0<2>/I0<1>/I0<1>/Q#6	VSS	6.28084e-17	$cmodel
C1385	I0<2>/I0<1>/I0<0>/Q#6	VSS	6.28084e-17	$cmodel
C1386	I0<2>/I0<0>/I0<3>/Q#6	VSS	6.28084e-17	$cmodel
C1387	I0<2>/I0<0>/I0<2>/Q#6	VSS	6.28084e-17	$cmodel
C1388	I0<2>/I0<0>/I0<1>/Q#6	VSS	6.28084e-17	$cmodel
C1389	I0<2>/I0<0>/I0<0>/Q#6	VSS	6.28084e-17	$cmodel
C1390	I0<1>/I0<3>/I0<3>/Q#6	VSS	6.28084e-17	$cmodel
C1391	I0<1>/I0<3>/I0<2>/Q#6	VSS	6.28084e-17	$cmodel
C1392	I0<1>/I0<3>/I0<1>/Q#6	VSS	6.28084e-17	$cmodel
C1393	I0<1>/I0<3>/I0<0>/Q#6	VSS	6.28084e-17	$cmodel
C1394	I0<1>/I0<2>/I0<3>/Q#6	VSS	6.28084e-17	$cmodel
C1395	I0<1>/I0<2>/I0<2>/Q#6	VSS	6.28084e-17	$cmodel
C1396	I0<1>/I0<2>/I0<1>/Q#6	VSS	6.28084e-17	$cmodel
C1397	I0<1>/I0<2>/I0<0>/Q#6	VSS	6.28084e-17	$cmodel
C1398	I0<1>/I0<1>/I0<3>/Q#6	VSS	6.28084e-17	$cmodel
C1399	I0<1>/I0<1>/I0<2>/Q#6	VSS	6.28084e-17	$cmodel
C1400	I0<1>/I0<1>/I0<1>/Q#6	VSS	6.28084e-17	$cmodel
C1401	I0<1>/I0<1>/I0<0>/Q#6	VSS	6.28084e-17	$cmodel
C1402	I0<1>/I0<0>/I0<3>/Q#6	VSS	6.28084e-17	$cmodel
C1403	I0<1>/I0<0>/I0<2>/Q#6	VSS	6.28084e-17	$cmodel
C1404	I0<1>/I0<0>/I0<1>/Q#6	VSS	6.28084e-17	$cmodel
C1405	I0<1>/I0<0>/I0<0>/Q#6	VSS	6.28084e-17	$cmodel
C1406	I0<0>/I0<3>/I0<3>/Q#6	VSS	6.28084e-17	$cmodel
C1407	I0<0>/I0<3>/I0<2>/Q#6	VSS	6.28084e-17	$cmodel
C1408	I0<0>/I0<3>/I0<1>/Q#6	VSS	6.28084e-17	$cmodel
C1409	I0<0>/I0<3>/I0<0>/Q#6	VSS	6.28084e-17	$cmodel
C1410	I0<0>/I0<2>/I0<3>/Q#6	VSS	6.28084e-17	$cmodel
C1411	I0<0>/I0<2>/I0<2>/Q#6	VSS	6.28084e-17	$cmodel
C1412	I0<0>/I0<2>/I0<1>/Q#6	VSS	6.28084e-17	$cmodel
C1413	I0<0>/I0<2>/I0<0>/Q#6	VSS	6.28084e-17	$cmodel
C1414	I0<0>/I0<1>/I0<3>/Q#6	VSS	6.28084e-17	$cmodel
C1415	I0<0>/I0<1>/I0<2>/Q#6	VSS	6.28084e-17	$cmodel
C1416	I0<0>/I0<1>/I0<1>/Q#6	VSS	6.28084e-17	$cmodel
C1417	I0<0>/I0<1>/I0<0>/Q#6	VSS	6.28084e-17	$cmodel
C1418	I0<0>/I0<0>/I0<3>/Q#6	VSS	6.28084e-17	$cmodel
C1419	I0<0>/I0<0>/I0<2>/Q#6	VSS	6.28084e-17	$cmodel
C1420	I0<0>/I0<0>/I0<1>/Q#6	VSS	6.28358e-17	$cmodel
C1421	I0<0>/I0<0>/I0<0>/Q#6	VSS	6.09442e-17	$cmodel
C1422	WL<63>#7	VSS	1.35933e-16	$cmodel
C1423	WL<62>#7	VSS	1.42746e-16	$cmodel
C1424	WL<61>#7	VSS	1.42552e-16	$cmodel
C1425	WL<60>#7	VSS	1.42542e-16	$cmodel
C1426	WL<59>#7	VSS	1.42419e-16	$cmodel
C1427	WL<58>#7	VSS	1.42542e-16	$cmodel
C1428	WL<57>#7	VSS	1.42544e-16	$cmodel
C1429	WL<56>#7	VSS	1.42542e-16	$cmodel
C1430	WL<55>#7	VSS	1.42544e-16	$cmodel
C1431	WL<54>#7	VSS	1.42542e-16	$cmodel
C1432	WL<53>#7	VSS	1.42544e-16	$cmodel
C1433	WL<52>#7	VSS	1.42542e-16	$cmodel
C1434	WL<51>#7	VSS	1.42544e-16	$cmodel
C1435	WL<50>#7	VSS	1.42542e-16	$cmodel
C1436	WL<49>#7	VSS	1.42544e-16	$cmodel
C1437	WL<48>#7	VSS	1.42542e-16	$cmodel
C1438	WL<47>#7	VSS	1.42544e-16	$cmodel
C1439	WL<46>#7	VSS	1.42542e-16	$cmodel
C1440	WL<45>#7	VSS	1.42544e-16	$cmodel
C1441	WL<44>#7	VSS	1.42542e-16	$cmodel
C1442	WL<43>#7	VSS	1.42544e-16	$cmodel
C1443	WL<42>#7	VSS	1.42542e-16	$cmodel
C1444	WL<41>#7	VSS	1.42544e-16	$cmodel
C1445	WL<40>#7	VSS	1.42542e-16	$cmodel
C1446	WL<39>#7	VSS	1.42544e-16	$cmodel
C1447	WL<38>#7	VSS	1.42542e-16	$cmodel
C1448	WL<37>#7	VSS	1.42544e-16	$cmodel
C1449	WL<36>#7	VSS	1.42542e-16	$cmodel
C1450	WL<35>#7	VSS	1.42544e-16	$cmodel
C1451	WL<34>#7	VSS	1.42542e-16	$cmodel
C1452	WL<33>#7	VSS	1.42544e-16	$cmodel
C1453	WL<32>#7	VSS	1.42542e-16	$cmodel
C1454	WL<31>#7	VSS	1.42544e-16	$cmodel
C1455	WL<30>#7	VSS	1.42542e-16	$cmodel
C1456	WL<29>#7	VSS	1.42544e-16	$cmodel
C1457	WL<28>#7	VSS	1.42542e-16	$cmodel
C1458	WL<27>#7	VSS	1.42544e-16	$cmodel
C1459	WL<26>#7	VSS	1.42542e-16	$cmodel
C1460	WL<25>#7	VSS	1.42544e-16	$cmodel
C1461	WL<24>#7	VSS	1.42542e-16	$cmodel
C1462	WL<23>#7	VSS	1.42544e-16	$cmodel
C1463	WL<22>#7	VSS	1.42542e-16	$cmodel
C1464	WL<21>#7	VSS	1.42544e-16	$cmodel
C1465	WL<20>#7	VSS	1.42542e-16	$cmodel
C1466	WL<19>#7	VSS	1.42544e-16	$cmodel
C1467	WL<18>#7	VSS	1.42542e-16	$cmodel
C1468	WL<17>#7	VSS	1.42544e-16	$cmodel
C1469	WL<16>#7	VSS	1.42542e-16	$cmodel
C1470	WL<15>#7	VSS	1.42544e-16	$cmodel
C1471	WL<14>#7	VSS	1.42542e-16	$cmodel
C1472	WL<13>#7	VSS	1.42544e-16	$cmodel
C1473	WL<12>#7	VSS	1.42542e-16	$cmodel
C1474	WL<11>#7	VSS	1.42544e-16	$cmodel
C1475	WL<10>#7	VSS	1.42542e-16	$cmodel
C1476	WL<9>#7	VSS	1.42544e-16	$cmodel
C1477	WL<8>#7	VSS	1.42542e-16	$cmodel
C1478	WL<7>#7	VSS	1.42544e-16	$cmodel
C1479	WL<6>#7	VSS	1.42542e-16	$cmodel
C1480	WL<5>#7	VSS	1.42544e-16	$cmodel
C1481	WL<4>#7	VSS	1.42542e-16	$cmodel
C1482	WL<3>#7	VSS	1.42544e-16	$cmodel
C1483	WL<2>#7	VSS	1.4255e-16	$cmodel
C1484	WL<1>#7	VSS	1.42747e-16	$cmodel
C1485	WL<0>#7	VSS	1.37485e-16	$cmodel
*
*
.ENDS bit_cell_col_64
*
